REMARK  Name = ../refined-set-2016/2ews/2ews_pocket.pdb
REMARK  213 active torsions:
REMARK  status: ('A' for Active; 'I' for Inactive)
REMARK    1  A    between atoms: _1  and  _3
REMARK    2  A    between atoms: _3  and  _4
REMARK    3  A    between atoms: _3  and  _6
REMARK    4  A    between atoms: _6  and  _7
REMARK    5  A    between atoms: _10  and  _12
REMARK    6  A    between atoms: _12  and  _13
REMARK    7  A    between atoms: _16  and  _18
REMARK    8  A    between atoms: _18  and  _19
REMARK    9  A    between atoms: _21  and  _23
REMARK   10  A    between atoms: _23  and  _24
REMARK   11  A    between atoms: _26  and  _28
REMARK   12  A    between atoms: _28  and  _29
REMARK   13  A    between atoms: _28  and  _31
REMARK   14  A    between atoms: _31  and  _32
REMARK   15  A    between atoms: _35  and  _37
REMARK   16  A    between atoms: _37  and  _38
REMARK   17  A    between atoms: _37  and  _40
REMARK   18  A    between atoms: _40  and  _41
REMARK   19  A    between atoms: _44  and  _46
REMARK   20  A    between atoms: _46  and  _47
REMARK   21  A    between atoms: _46  and  _49
REMARK   22  A    between atoms: _49  and  _50
REMARK   23  A    between atoms: _53  and  _55
REMARK   24  A    between atoms: _55  and  _56
REMARK   25  A    between atoms: _55  and  _58
REMARK   26  A    between atoms: _58  and  _59
REMARK   27  A    between atoms: _59  and  _60
REMARK   28  A    between atoms: _60  and  _61
REMARK   29  A    between atoms: _61  and  _62
REMARK   30  A    between atoms: _66  and  _68
REMARK   31  A    between atoms: _68  and  _69
REMARK   32  A    between atoms: _68  and  _71
REMARK   33  A    between atoms: _71  and  _72
REMARK   34  A    between atoms: _75  and  _77
REMARK   35  A    between atoms: _77  and  _78
REMARK   36  A    between atoms: _77  and  _80
REMARK   37  A    between atoms: _80  and  _81
REMARK   38  A    between atoms: _81  and  _82
REMARK   39  A    between atoms: _85  and  _87
REMARK   40  A    between atoms: _87  and  _88
REMARK   41  A    between atoms: _87  and  _90
REMARK   42  A    between atoms: _90  and  _91
REMARK   43  A    between atoms: _94  and  _96
REMARK   44  A    between atoms: _96  and  _97
REMARK   45  A    between atoms: _96  and  _99
REMARK   46  A    between atoms: _99  and  _100
REMARK   47  A    between atoms: _103  and  _105
REMARK   48  A    between atoms: _105  and  _106
REMARK   49  A    between atoms: _105  and  _108
REMARK   50  A    between atoms: _108  and  _109
REMARK   51  A    between atoms: _109  and  _110
REMARK   52  A    between atoms: _110  and  _111
REMARK   53  A    between atoms: _111  and  _112
REMARK   54  A    between atoms: _116  and  _118
REMARK   55  A    between atoms: _118  and  _119
REMARK   56  A    between atoms: _118  and  _121
REMARK   57  A    between atoms: _121  and  _122
REMARK   58  A    between atoms: _125  and  _127
REMARK   59  A    between atoms: _127  and  _128
REMARK   60  A    between atoms: _130  and  _132
REMARK   61  A    between atoms: _132  and  _133
REMARK   62  A    between atoms: _135  and  _137
REMARK   63  A    between atoms: _137  and  _138
REMARK   64  A    between atoms: _137  and  _140
REMARK   65  A    between atoms: _140  and  _141
REMARK   66  A    between atoms: _146  and  _148
REMARK   67  A    between atoms: _148  and  _149
REMARK   68  A    between atoms: _148  and  _151
REMARK   69  A    between atoms: _151  and  _152
REMARK   70  A    between atoms: _152  and  _153
REMARK   71  A    between atoms: _156  and  _158
REMARK   72  A    between atoms: _158  and  _159
REMARK   73  A    between atoms: _158  and  _161
REMARK   74  A    between atoms: _161  and  _162
REMARK   75  A    between atoms: _168  and  _170
REMARK   76  A    between atoms: _170  and  _171
REMARK   77  A    between atoms: _170  and  _173
REMARK   78  A    between atoms: _173  and  _174
REMARK   79  A    between atoms: _179  and  _181
REMARK   80  A    between atoms: _181  and  _182
REMARK   81  A    between atoms: _181  and  _184
REMARK   82  A    between atoms: _187  and  _189
REMARK   83  A    between atoms: _189  and  _190
REMARK   84  A    between atoms: _192  and  _194
REMARK   85  A    between atoms: _194  and  _195
REMARK   86  A    between atoms: _194  and  _197
REMARK   87  A    between atoms: _197  and  _198
REMARK   88  A    between atoms: _201  and  _203
REMARK   89  A    between atoms: _203  and  _204
REMARK   90  A    between atoms: _206  and  _208
REMARK   91  A    between atoms: _208  and  _209
REMARK   92  A    between atoms: _208  and  _211
REMARK   93  A    between atoms: _211  and  _212
REMARK   94  A    between atoms: _215  and  _217
REMARK   95  A    between atoms: _217  and  _218
REMARK   96  A    between atoms: _217  and  _220
REMARK   97  A    between atoms: _220  and  _221
REMARK   98  A    between atoms: _223  and  _225
REMARK   99  A    between atoms: _225  and  _226
REMARK  100  A    between atoms: _228  and  _230
REMARK  101  A    between atoms: _230  and  _231
REMARK  102  A    between atoms: _233  and  _235
REMARK  103  A    between atoms: _235  and  _236
REMARK  104  A    between atoms: _238  and  _240
REMARK  105  A    between atoms: _240  and  _241
REMARK  106  A    between atoms: _240  and  _243
REMARK  107  A    between atoms: _243  and  _244
REMARK  108  A    between atoms: _244  and  _245
REMARK  109  A    between atoms: _247  and  _249
REMARK  110  A    between atoms: _249  and  _250
REMARK  111  A    between atoms: _249  and  _252
REMARK  112  A    between atoms: _252  and  _253
REMARK  113  A    between atoms: _256  and  _258
REMARK  114  A    between atoms: _258  and  _259
REMARK  115  A    between atoms: _258  and  _261
REMARK  116  A    between atoms: _261  and  _262
REMARK  117  A    between atoms: _262  and  _263
REMARK  118  A    between atoms: _268  and  _270
REMARK  119  A    between atoms: _270  and  _271
REMARK  120  A    between atoms: _273  and  _275
REMARK  121  A    between atoms: _275  and  _276
REMARK  122  A    between atoms: _275  and  _278
REMARK  123  A    between atoms: _278  and  _279
REMARK  124  A    between atoms: _282  and  _284
REMARK  125  A    between atoms: _284  and  _285
REMARK  126  A    between atoms: _284  and  _287
REMARK  127  A    between atoms: _287  and  _288
REMARK  128  A    between atoms: _291  and  _293
REMARK  129  A    between atoms: _293  and  _294
REMARK  130  A    between atoms: _293  and  _296
REMARK  131  A    between atoms: _296  and  _297
REMARK  132  A    between atoms: _302  and  _303
REMARK  133  A    between atoms: _305  and  _307
REMARK  134  A    between atoms: _307  and  _308
REMARK  135  A    between atoms: _307  and  _310
REMARK  136  A    between atoms: _310  and  _311
REMARK  137  A    between atoms: _311  and  _312
REMARK  138  A    between atoms: _312  and  _313
REMARK  139  A    between atoms: _313  and  _314
REMARK  140  A    between atoms: _318  and  _320
REMARK  141  A    between atoms: _320  and  _321
REMARK  142  A    between atoms: _320  and  _323
REMARK  143  A    between atoms: _323  and  _324
REMARK  144  A    between atoms: _327  and  _329
REMARK  145  A    between atoms: _329  and  _330
REMARK  146  A    between atoms: _329  and  _332
REMARK  147  A    between atoms: _332  and  _333
REMARK  148  A    between atoms: _336  and  _338
REMARK  149  A    between atoms: _338  and  _339
REMARK  150  A    between atoms: _338  and  _341
REMARK  151  A    between atoms: _341  and  _342
REMARK  152  A    between atoms: _345  and  _347
REMARK  153  A    between atoms: _347  and  _348
REMARK  154  A    between atoms: _350  and  _352
REMARK  155  A    between atoms: _352  and  _353
REMARK  156  A    between atoms: _352  and  _355
REMARK  157  A    between atoms: _355  and  _356
REMARK  158  A    between atoms: _358  and  _360
REMARK  159  A    between atoms: _360  and  _361
REMARK  160  A    between atoms: _360  and  _363
REMARK  161  A    between atoms: _363  and  _364
REMARK  162  A    between atoms: _366  and  _368
REMARK  163  A    between atoms: _368  and  _369
REMARK  164  A    between atoms: _368  and  _371
REMARK  165  A    between atoms: _371  and  _372
REMARK  166  A    between atoms: _378  and  _380
REMARK  167  A    between atoms: _380  and  _381
REMARK  168  A    between atoms: _380  and  _383
REMARK  169  A    between atoms: _383  and  _384
REMARK  170  A    between atoms: _389  and  _391
REMARK  171  A    between atoms: _391  and  _392
REMARK  172  A    between atoms: _391  and  _394
REMARK  173  A    between atoms: _394  and  _395
REMARK  174  A    between atoms: _400  and  _402
REMARK  175  A    between atoms: _402  and  _403
REMARK  176  A    between atoms: _402  and  _405
REMARK  177  A    between atoms: _405  and  _406
REMARK  178  A    between atoms: _411  and  _413
REMARK  179  A    between atoms: _413  and  _414
REMARK  180  A    between atoms: _413  and  _416
REMARK  181  A    between atoms: _416  and  _417
REMARK  182  A    between atoms: _420  and  _422
REMARK  183  A    between atoms: _422  and  _423
REMARK  184  A    between atoms: _425  and  _427
REMARK  185  A    between atoms: _427  and  _428
REMARK  186  A    between atoms: _431  and  _433
REMARK  187  A    between atoms: _433  and  _434
REMARK  188  A    between atoms: _433  and  _436
REMARK  189  A    between atoms: _436  and  _437
REMARK  190  A    between atoms: _443  and  _445
REMARK  191  A    between atoms: _445  and  _446
REMARK  192  A    between atoms: _445  and  _448
REMARK  193  A    between atoms: _448  and  _449
REMARK  194  A    between atoms: _451  and  _453
REMARK  195  A    between atoms: _453  and  _454
REMARK  196  A    between atoms: _456  and  _458
REMARK  197  A    between atoms: _458  and  _459
REMARK  198  A    between atoms: _458  and  _461
REMARK  199  A    between atoms: _461  and  _462
REMARK  200  A    between atoms: _465  and  _467
REMARK  201  A    between atoms: _467  and  _468
REMARK  202  A    between atoms: _467  and  _470
REMARK  203  A    between atoms: _470  and  _471
REMARK  204  A    between atoms: _474  and  _476
REMARK  205  A    between atoms: _476  and  _477
REMARK  206  A    between atoms: _480  and  _482
REMARK  207  A    between atoms: _482  and  _483
REMARK  208  A    between atoms: _486  and  _488
REMARK  209  A    between atoms: _488  and  _489
REMARK  210  A    between atoms: _491  and  _493
REMARK  211  A    between atoms: _493  and  _494
REMARK  212  A    between atoms: _493  and  _496
REMARK  213  A    between atoms: _496  and  _497
REMARK                            x       y       z     vdW  Elec       q    Type
REMARK                         _______ _______ _______ _____ _____    ______ ____
ROOT
ATOM      1  C   THR A   5      12.189  24.290  -2.408  0.00  0.00    +0.243 C 
ATOM      2  O   THR A   5      10.988  24.095  -2.496  0.00  0.00    -0.273 OA
ATOM      3  N   LEU A   6      13.055  23.875  -3.332  0.00  0.00    -0.297 N 
ATOM      4  H   LEU A   6      14.069  24.069  -3.203  0.00  0.00    +0.150 HD
ENDROOT
BRANCH   3   5
ATOM      5  CA  LEU A   6      12.609  23.151  -4.526  0.00  0.00    +0.149 C 
BRANCH   5   6
ATOM      6  C   LEU A   6      13.204  21.748  -4.644  0.00  0.00    +0.241 C 
ATOM      7  O   LEU A   6      14.319  21.481  -4.196  0.00  0.00    -0.273 OA
ATOM      8  N   ILE A   7      12.447  20.857  -5.269  0.00  0.00    -0.297 N 
ATOM      9  H   ILE A   7      11.506  21.139  -5.610  0.00  0.00    +0.150 HD
BRANCH   8  10
ATOM     10  CA  ILE A   7      12.903  19.494  -5.489  0.00  0.00    +0.149 C 
BRANCH  10  11
ATOM     11  C   ILE A   7      13.090  19.373  -6.990  0.00  0.00    +0.241 C 
ATOM     12  N   LYS A   8      14.336  19.179  -7.413  0.00  0.00    -0.298 N 
ATOM     13  H   LYS A   8      15.098  19.124  -6.708  0.00  0.00    +0.150 HD
ATOM     14  O   ILE A   7      12.126  19.484  -7.745  0.00  0.00    -0.273 OA
BRANCH  12  15
ATOM     15  CA  LYS A   8      14.678  19.040  -8.821  0.00  0.00    +0.137 C 
BRANCH  15  16
ATOM     16  C   LYS A   8      14.810  17.560  -9.184  0.00  0.00    +0.227 C 
ATOM     17  O   LYS A   8      15.555  16.818  -8.541  0.00  0.00    -0.286 OA
ENDBRANCH  15  16
BRANCH  15  18
ATOM     18  CB  LYS A   8      15.993  19.768  -9.118  0.00  0.00    +0.028 C 
BRANCH  18  19
ATOM     19  CG  LYS A   8      15.875  21.281  -9.201  0.00  0.00    -0.000 C 
BRANCH  19  20
ATOM     20  CD  LYS A   8      15.612  21.939  -7.845  0.00  0.00    -0.024 C 
BRANCH  20  21
ATOM     21  CE  LYS A   8      16.850  21.912  -6.939  0.00  0.00    -0.086 C 
BRANCH  21  22
ATOM     22  NZ  LYS A   8      16.568  22.609  -5.644  0.00  0.00    +0.380 N 
ATOM     23  HZ1 LYS A   8      17.417  22.580  -5.044  0.00  0.00    -0.089 HD
ATOM     24  HZ2 LYS A   8      15.783  22.131  -5.158  0.00  0.00    -0.089 HD
ATOM     25  HZ3 LYS A   8      16.309  23.598  -5.833  0.00  0.00    -0.089 HD
ENDBRANCH  21  22
ENDBRANCH  20  21
ENDBRANCH  19  20
ENDBRANCH  18  19
ENDBRANCH  15  18
ENDBRANCH  12  15
ENDBRANCH  10  11
BRANCH  10  26
ATOM     26  CB  ILE A   7      11.858  18.473  -5.014  0.00  0.00    +0.027 C 
ATOM     27  CG2 ILE A   7      12.330  17.059  -5.313  0.00  0.00    +0.002 C 
BRANCH  26  28
ATOM     28  CG1 ILE A   7      11.614  18.659  -3.515  0.00  0.00    +0.002 C 
ATOM     29  CD1 ILE A   7      10.472  17.835  -2.961  0.00  0.00    +0.000 C 
ENDBRANCH  26  28
ENDBRANCH  10  26
ENDBRANCH   8  10
ENDBRANCH   5   6
BRANCH   5  30
ATOM     30  CB  LEU A   6      12.976  23.911  -5.806  0.00  0.00    +0.029 C 
BRANCH  30  31
ATOM     31  CG  LEU A   6      12.491  25.344  -6.043  0.00  0.00    +0.002 C 
ATOM     32  CD2 LEU A   6      10.985  25.443  -5.839  0.00  0.00    +0.000 C 
ATOM     33  CD1 LEU A   6      12.857  25.743  -7.462  0.00  0.00    +0.000 C 
ENDBRANCH  30  31
ENDBRANCH   5  30
ENDBRANCH   3   5
BRANCH   1  34
ATOM     34  CA  THR A   5      12.750  25.032  -1.199  0.00  0.00    +0.176 C 
BRANCH  34  37
ATOM     35  C   GLY A   4      13.755  23.904   0.678  0.00  0.00    +0.243 C 
ATOM     36  O   GLY A   4      12.745  24.085   1.352  0.00  0.00    -0.273 OA
ATOM     37  N   THR A   5      13.856  24.321  -0.576  0.00  0.00    -0.295 N 
ATOM     38  H   THR A   5      14.727  24.140  -1.115  0.00  0.00    +0.150 HD
BRANCH  35  39
ATOM     39  CA  GLY A   4      14.953  23.181   1.264  0.00  0.00    +0.176 C 
BRANCH  39  41
ATOM     40  C   GLY A   3      15.535  21.598  -0.471  0.00  0.00    +0.243 C 
ATOM     41  N   GLY A   4      15.875  22.641   0.282  0.00  0.00    -0.295 N 
ATOM     42  H   GLY A   4      16.813  23.075   0.165  0.00  0.00    +0.150 HD
ATOM     43  O   GLY A   3      14.440  21.051  -0.402  0.00  0.00    -0.273 OA
BRANCH  40  44
ATOM     44  CA  GLY A   3      16.580  21.111  -1.451  0.00  0.00    +0.176 C 
BRANCH  44  47
ATOM     45  C   ALA A   2      16.204  18.734  -1.773  0.00  0.00    +0.241 C 
ATOM     46  O   ALA A   2      16.620  18.453  -0.650  0.00  0.00    -0.273 OA
ATOM     47  N   GLY A   3      16.142  19.978  -2.246  0.00  0.00    -0.295 N 
ATOM     48  H   GLY A   3      15.772  20.141  -3.204  0.00  0.00    +0.150 HD
BRANCH  45  49
ATOM     49  CA  ALA A   2      15.719  17.648  -2.719  0.00  0.00    +0.149 C 
ATOM     50  CB  ALA A   2      15.107  16.484  -1.930  0.00  0.00    +0.031 C 
BRANCH  49  52
ATOM     51  C   ASP A   1      16.921  17.606  -4.825  0.00  0.00    +0.239 C 
ATOM     52  N   ALA A   2      16.781  17.157  -3.583  0.00  0.00    -0.297 N 
ATOM     53  H   ALA A   2      17.443  16.441  -3.221  0.00  0.00    +0.150 HD
ATOM     54  O   ASP A   1      16.180  18.455  -5.317  0.00  0.00    -0.274 OA
BRANCH  51  55
ATOM     55  CA  ASP A   1      18.041  16.997  -5.648  0.00  0.00    +0.156 C 
BRANCH  55  56
ATOM     56  N   ASP A   1      17.379  16.051  -6.538  0.00  0.00    -0.238 NA
ATOM     57  H   ASP A   1      16.724  16.419  -7.257  0.00  0.00    +0.142 HD
ENDBRANCH  55  56
BRANCH  55  58
ATOM     58  CB  ASP A   1      18.739  18.086  -6.455  0.00  0.00    +0.140 C 
BRANCH  58  59
ATOM     59  CG  ASP A   1      19.443  19.104  -5.575  0.00  0.00    +0.367 C 
ATOM     60  OD2 ASP A   1      19.233  19.077  -4.343  0.00  0.00    -0.246 OA
ATOM     61  OD1 ASP A   1      20.197  19.935  -6.118  0.00  0.00    -0.246 OA
ENDBRANCH  58  59
ENDBRANCH  55  58
ENDBRANCH  51  55
ENDBRANCH  49  52
ENDBRANCH  45  49
ENDBRANCH  44  47
ENDBRANCH  40  44
ENDBRANCH  39  41
ENDBRANCH  35  39
ENDBRANCH  34  37
BRANCH  34  62
ATOM     62  CB  THR A   5      13.183  26.448  -1.627  0.00  0.00    +0.137 C 
ATOM     63  CG2 THR A   5      11.969  27.275  -2.027  0.00  0.00    +0.034 C 
BRANCH  62  64
ATOM     64  OG1 THR A   5      13.854  27.088  -0.534  0.00  0.00    -0.382 OA
ATOM     65  HG1 THR A   5      14.652  26.558  -0.282  0.00  0.00    +0.210 HD
ENDBRANCH  62  64
ENDBRANCH  34  62
ENDBRANCH   1  34
TORSDOF 29
REMARK  Name = ../refined-set-2016/2ews/2ews_pocket.pdb
REMARK  213 active torsions:
REMARK  status: ('A' for Active; 'I' for Inactive)
REMARK    1  A    between atoms: _1  and  _3
REMARK    2  A    between atoms: _3  and  _4
REMARK    3  A    between atoms: _3  and  _6
REMARK    4  A    between atoms: _6  and  _7
REMARK    5  A    between atoms: _10  and  _12
REMARK    6  A    between atoms: _12  and  _13
REMARK    7  A    between atoms: _16  and  _18
REMARK    8  A    between atoms: _18  and  _19
REMARK    9  A    between atoms: _21  and  _23
REMARK   10  A    between atoms: _23  and  _24
REMARK   11  A    between atoms: _26  and  _28
REMARK   12  A    between atoms: _28  and  _29
REMARK   13  A    between atoms: _28  and  _31
REMARK   14  A    between atoms: _31  and  _32
REMARK   15  A    between atoms: _35  and  _37
REMARK   16  A    between atoms: _37  and  _38
REMARK   17  A    between atoms: _37  and  _40
REMARK   18  A    between atoms: _40  and  _41
REMARK   19  A    between atoms: _44  and  _46
REMARK   20  A    between atoms: _46  and  _47
REMARK   21  A    between atoms: _46  and  _49
REMARK   22  A    between atoms: _49  and  _50
REMARK   23  A    between atoms: _53  and  _55
REMARK   24  A    between atoms: _55  and  _56
REMARK   25  A    between atoms: _55  and  _58
REMARK   26  A    between atoms: _58  and  _59
REMARK   27  A    between atoms: _59  and  _60
REMARK   28  A    between atoms: _60  and  _61
REMARK   29  A    between atoms: _61  and  _62
REMARK   30  A    between atoms: _66  and  _68
REMARK   31  A    between atoms: _68  and  _69
REMARK   32  A    between atoms: _68  and  _71
REMARK   33  A    between atoms: _71  and  _72
REMARK   34  A    between atoms: _75  and  _77
REMARK   35  A    between atoms: _77  and  _78
REMARK   36  A    between atoms: _77  and  _80
REMARK   37  A    between atoms: _80  and  _81
REMARK   38  A    between atoms: _81  and  _82
REMARK   39  A    between atoms: _85  and  _87
REMARK   40  A    between atoms: _87  and  _88
REMARK   41  A    between atoms: _87  and  _90
REMARK   42  A    between atoms: _90  and  _91
REMARK   43  A    between atoms: _94  and  _96
REMARK   44  A    between atoms: _96  and  _97
REMARK   45  A    between atoms: _96  and  _99
REMARK   46  A    between atoms: _99  and  _100
REMARK   47  A    between atoms: _103  and  _105
REMARK   48  A    between atoms: _105  and  _106
REMARK   49  A    between atoms: _105  and  _108
REMARK   50  A    between atoms: _108  and  _109
REMARK   51  A    between atoms: _109  and  _110
REMARK   52  A    between atoms: _110  and  _111
REMARK   53  A    between atoms: _111  and  _112
REMARK   54  A    between atoms: _116  and  _118
REMARK   55  A    between atoms: _118  and  _119
REMARK   56  A    between atoms: _118  and  _121
REMARK   57  A    between atoms: _121  and  _122
REMARK   58  A    between atoms: _125  and  _127
REMARK   59  A    between atoms: _127  and  _128
REMARK   60  A    between atoms: _130  and  _132
REMARK   61  A    between atoms: _132  and  _133
REMARK   62  A    between atoms: _135  and  _137
REMARK   63  A    between atoms: _137  and  _138
REMARK   64  A    between atoms: _137  and  _140
REMARK   65  A    between atoms: _140  and  _141
REMARK   66  A    between atoms: _146  and  _148
REMARK   67  A    between atoms: _148  and  _149
REMARK   68  A    between atoms: _148  and  _151
REMARK   69  A    between atoms: _151  and  _152
REMARK   70  A    between atoms: _152  and  _153
REMARK   71  A    between atoms: _156  and  _158
REMARK   72  A    between atoms: _158  and  _159
REMARK   73  A    between atoms: _158  and  _161
REMARK   74  A    between atoms: _161  and  _162
REMARK   75  A    between atoms: _168  and  _170
REMARK   76  A    between atoms: _170  and  _171
REMARK   77  A    between atoms: _170  and  _173
REMARK   78  A    between atoms: _173  and  _174
REMARK   79  A    between atoms: _179  and  _181
REMARK   80  A    between atoms: _181  and  _182
REMARK   81  A    between atoms: _181  and  _184
REMARK   82  A    between atoms: _187  and  _189
REMARK   83  A    between atoms: _189  and  _190
REMARK   84  A    between atoms: _192  and  _194
REMARK   85  A    between atoms: _194  and  _195
REMARK   86  A    between atoms: _194  and  _197
REMARK   87  A    between atoms: _197  and  _198
REMARK   88  A    between atoms: _201  and  _203
REMARK   89  A    between atoms: _203  and  _204
REMARK   90  A    between atoms: _206  and  _208
REMARK   91  A    between atoms: _208  and  _209
REMARK   92  A    between atoms: _208  and  _211
REMARK   93  A    between atoms: _211  and  _212
REMARK   94  A    between atoms: _215  and  _217
REMARK   95  A    between atoms: _217  and  _218
REMARK   96  A    between atoms: _217  and  _220
REMARK   97  A    between atoms: _220  and  _221
REMARK   98  A    between atoms: _223  and  _225
REMARK   99  A    between atoms: _225  and  _226
REMARK  100  A    between atoms: _228  and  _230
REMARK  101  A    between atoms: _230  and  _231
REMARK  102  A    between atoms: _233  and  _235
REMARK  103  A    between atoms: _235  and  _236
REMARK  104  A    between atoms: _238  and  _240
REMARK  105  A    between atoms: _240  and  _241
REMARK  106  A    between atoms: _240  and  _243
REMARK  107  A    between atoms: _243  and  _244
REMARK  108  A    between atoms: _244  and  _245
REMARK  109  A    between atoms: _247  and  _249
REMARK  110  A    between atoms: _249  and  _250
REMARK  111  A    between atoms: _249  and  _252
REMARK  112  A    between atoms: _252  and  _253
REMARK  113  A    between atoms: _256  and  _258
REMARK  114  A    between atoms: _258  and  _259
REMARK  115  A    between atoms: _258  and  _261
REMARK  116  A    between atoms: _261  and  _262
REMARK  117  A    between atoms: _262  and  _263
REMARK  118  A    between atoms: _268  and  _270
REMARK  119  A    between atoms: _270  and  _271
REMARK  120  A    between atoms: _273  and  _275
REMARK  121  A    between atoms: _275  and  _276
REMARK  122  A    between atoms: _275  and  _278
REMARK  123  A    between atoms: _278  and  _279
REMARK  124  A    between atoms: _282  and  _284
REMARK  125  A    between atoms: _284  and  _285
REMARK  126  A    between atoms: _284  and  _287
REMARK  127  A    between atoms: _287  and  _288
REMARK  128  A    between atoms: _291  and  _293
REMARK  129  A    between atoms: _293  and  _294
REMARK  130  A    between atoms: _293  and  _296
REMARK  131  A    between atoms: _296  and  _297
REMARK  132  A    between atoms: _302  and  _303
REMARK  133  A    between atoms: _305  and  _307
REMARK  134  A    between atoms: _307  and  _308
REMARK  135  A    between atoms: _307  and  _310
REMARK  136  A    between atoms: _310  and  _311
REMARK  137  A    between atoms: _311  and  _312
REMARK  138  A    between atoms: _312  and  _313
REMARK  139  A    between atoms: _313  and  _314
REMARK  140  A    between atoms: _318  and  _320
REMARK  141  A    between atoms: _320  and  _321
REMARK  142  A    between atoms: _320  and  _323
REMARK  143  A    between atoms: _323  and  _324
REMARK  144  A    between atoms: _327  and  _329
REMARK  145  A    between atoms: _329  and  _330
REMARK  146  A    between atoms: _329  and  _332
REMARK  147  A    between atoms: _332  and  _333
REMARK  148  A    between atoms: _336  and  _338
REMARK  149  A    between atoms: _338  and  _339
REMARK  150  A    between atoms: _338  and  _341
REMARK  151  A    between atoms: _341  and  _342
REMARK  152  A    between atoms: _345  and  _347
REMARK  153  A    between atoms: _347  and  _348
REMARK  154  A    between atoms: _350  and  _352
REMARK  155  A    between atoms: _352  and  _353
REMARK  156  A    between atoms: _352  and  _355
REMARK  157  A    between atoms: _355  and  _356
REMARK  158  A    between atoms: _358  and  _360
REMARK  159  A    between atoms: _360  and  _361
REMARK  160  A    between atoms: _360  and  _363
REMARK  161  A    between atoms: _363  and  _364
REMARK  162  A    between atoms: _366  and  _368
REMARK  163  A    between atoms: _368  and  _369
REMARK  164  A    between atoms: _368  and  _371
REMARK  165  A    between atoms: _371  and  _372
REMARK  166  A    between atoms: _378  and  _380
REMARK  167  A    between atoms: _380  and  _381
REMARK  168  A    between atoms: _380  and  _383
REMARK  169  A    between atoms: _383  and  _384
REMARK  170  A    between atoms: _389  and  _391
REMARK  171  A    between atoms: _391  and  _392
REMARK  172  A    between atoms: _391  and  _394
REMARK  173  A    between atoms: _394  and  _395
REMARK  174  A    between atoms: _400  and  _402
REMARK  175  A    between atoms: _402  and  _403
REMARK  176  A    between atoms: _402  and  _405
REMARK  177  A    between atoms: _405  and  _406
REMARK  178  A    between atoms: _411  and  _413
REMARK  179  A    between atoms: _413  and  _414
REMARK  180  A    between atoms: _413  and  _416
REMARK  181  A    between atoms: _416  and  _417
REMARK  182  A    between atoms: _420  and  _422
REMARK  183  A    between atoms: _422  and  _423
REMARK  184  A    between atoms: _425  and  _427
REMARK  185  A    between atoms: _427  and  _428
REMARK  186  A    between atoms: _431  and  _433
REMARK  187  A    between atoms: _433  and  _434
REMARK  188  A    between atoms: _433  and  _436
REMARK  189  A    between atoms: _436  and  _437
REMARK  190  A    between atoms: _443  and  _445
REMARK  191  A    between atoms: _445  and  _446
REMARK  192  A    between atoms: _445  and  _448
REMARK  193  A    between atoms: _448  and  _449
REMARK  194  A    between atoms: _451  and  _453
REMARK  195  A    between atoms: _453  and  _454
REMARK  196  A    between atoms: _456  and  _458
REMARK  197  A    between atoms: _458  and  _459
REMARK  198  A    between atoms: _458  and  _461
REMARK  199  A    between atoms: _461  and  _462
REMARK  200  A    between atoms: _465  and  _467
REMARK  201  A    between atoms: _467  and  _468
REMARK  202  A    between atoms: _467  and  _470
REMARK  203  A    between atoms: _470  and  _471
REMARK  204  A    between atoms: _474  and  _476
REMARK  205  A    between atoms: _476  and  _477
REMARK  206  A    between atoms: _480  and  _482
REMARK  207  A    between atoms: _482  and  _483
REMARK  208  A    between atoms: _486  and  _488
REMARK  209  A    between atoms: _488  and  _489
REMARK  210  A    between atoms: _491  and  _493
REMARK  211  A    between atoms: _493  and  _494
REMARK  212  A    between atoms: _493  and  _496
REMARK  213  A    between atoms: _496  and  _497
REMARK                            x       y       z     vdW  Elec       q    Type
REMARK                         _______ _______ _______ _____ _____    ______ ____
ROOT
ATOM      1  CA  LEU A   3       8.089  22.440  -4.422  0.00  0.00    +0.149 C 
ENDROOT
BRANCH   1   3
ATOM      2  C   GLU A   2       8.779  21.176  -6.351  0.00  0.00    +0.241 C 
ATOM      3  N   LEU A   3       7.795  21.703  -5.637  0.00  0.00    -0.297 N 
ATOM      4  H   LEU A   3       6.809  21.588  -5.948  0.00  0.00    +0.150 HD
ATOM      5  O   GLU A   2       9.966  21.294  -6.034  0.00  0.00    -0.273 OA
BRANCH   2   6
ATOM      6  CA  GLU A   2       8.379  20.414  -7.605  0.00  0.00    +0.149 C 
BRANCH   6   8
ATOM      7  C   THR A   1       9.366  20.689  -9.813  0.00  0.00    +0.241 C 
ATOM      8  N   GLU A   2       9.508  20.433  -8.520  0.00  0.00    -0.297 N 
ATOM      9  H   GLU A   2      10.460  20.239  -8.148  0.00  0.00    +0.150 HD
ATOM     10  O   THR A   1       8.278  20.901 -10.341  0.00  0.00    -0.274 OA
BRANCH   7  11
ATOM     11  CA  THR A   1      10.643  20.698 -10.631  0.00  0.00    +0.172 C 
BRANCH  11  12
ATOM     12  N   THR A   1      10.440  19.970 -11.868  0.00  0.00    -0.236 NA
ATOM     13  H   THR A   1       9.648  20.232 -12.489  0.00  0.00    +0.142 HD
ENDBRANCH  11  12
BRANCH  11  14
ATOM     14  CB  THR A   1      11.055  22.163 -10.901  0.00  0.00    +0.135 C 
ATOM     15  CG2 THR A   1      11.106  22.953  -9.609  0.00  0.00    +0.034 C 
BRANCH  14  16
ATOM     16  OG1 THR A   1      12.350  22.192 -11.508  0.00  0.00    -0.383 OA
ATOM     17  HG1 THR A   1      12.612  23.131 -11.680  0.00  0.00    +0.210 HD
ENDBRANCH  14  16
ENDBRANCH  11  14
ENDBRANCH   7  11
ENDBRANCH   6   8
BRANCH   6  18
ATOM     18  CB  GLU A   2       8.007  18.973  -7.242  0.00  0.00    +0.041 C 
BRANCH  18  19
ATOM     19  CG  GLU A   2       7.016  18.318  -8.184  0.00  0.00    +0.116 C 
BRANCH  19  20
ATOM     20  CD  GLU A   2       5.619  18.910  -8.076  0.00  0.00    +0.365 C 
ATOM     21  OE2 GLU A   2       5.397  19.817  -7.241  0.00  0.00    -0.246 OA
ATOM     22  OE1 GLU A   2       4.738  18.456  -8.831  0.00  0.00    -0.246 OA
ENDBRANCH  19  20
ENDBRANCH  18  19
ENDBRANCH   6  18
ENDBRANCH   2   6
ENDBRANCH   1   3
BRANCH   1  23
ATOM     23  C   LEU A   3       8.387  21.448  -3.304  0.00  0.00    +0.241 C 
ATOM     24  N   THR A   4       9.264  21.833  -2.388  0.00  0.00    -0.295 N 
ATOM     25  H   THR A   4       9.709  22.770  -2.460  0.00  0.00    +0.150 HD
ATOM     26  O   LEU A   3       7.826  20.355  -3.263  0.00  0.00    -0.273 OA
BRANCH  24  27
ATOM     27  CA  THR A   4       9.606  20.953  -1.285  0.00  0.00    +0.176 C 
BRANCH  27  28
ATOM     28  C   THR A   4       8.413  20.760  -0.356  0.00  0.00    +0.243 C 
ATOM     29  O   THR A   4       8.330  19.762   0.357  0.00  0.00    -0.273 OA
ATOM     30  N   LYS A   5       7.483  21.711  -0.365  0.00  0.00    -0.298 N 
ATOM     31  H   LYS A   5       7.599  22.546  -0.974  0.00  0.00    +0.150 HD
BRANCH  30  32
ATOM     32  CA  LYS A   5       6.303  21.583   0.477  0.00  0.00    +0.137 C 
BRANCH  32  33
ATOM     33  C   LYS A   5       5.424  20.431  -0.015  0.00  0.00    +0.227 C 
ATOM     34  O   LYS A   5       4.597  19.916   0.735  0.00  0.00    -0.286 OA
ENDBRANCH  32  33
BRANCH  32  35
ATOM     35  CB  LYS A   5       5.505  22.891   0.509  0.00  0.00    +0.028 C 
BRANCH  35  36
ATOM     36  CG  LYS A   5       5.246  23.525  -0.852  0.00  0.00    -0.000 C 
BRANCH  36  37
ATOM     37  CD  LYS A   5       4.527  24.870  -0.694  0.00  0.00    -0.024 C 
BRANCH  37  38
ATOM     38  CE  LYS A   5       3.015  24.740  -0.854  0.00  0.00    -0.086 C 
BRANCH  38  39
ATOM     39  NZ  LYS A   5       2.639  24.499  -2.278  0.00  0.00    +0.380 N 
ATOM     40  HZ1 LYS A   5       1.605  24.415  -2.353  0.00  0.00    -0.089 HD
ATOM     41  HZ2 LYS A   5       3.084  23.619  -2.609  0.00  0.00    -0.089 HD
ATOM     42  HZ3 LYS A   5       2.967  25.295  -2.861  0.00  0.00    -0.089 HD
ENDBRANCH  38  39
ENDBRANCH  37  38
ENDBRANCH  36  37
ENDBRANCH  35  36
ENDBRANCH  32  35
ENDBRANCH  30  32
ENDBRANCH  27  28
BRANCH  27  43
ATOM     43  CB  THR A   4      10.802  21.506  -0.504  0.00  0.00    +0.137 C 
ATOM     44  CG2 THR A   4      11.183  20.571   0.640  0.00  0.00    +0.034 C 
BRANCH  43  45
ATOM     45  OG1 THR A   4      11.915  21.632  -1.397  0.00  0.00    -0.382 OA
ATOM     46  HG1 THR A   4      11.678  22.251  -2.133  0.00  0.00    +0.210 HD
ENDBRANCH  43  45
ENDBRANCH  27  43
ENDBRANCH  24  27
ENDBRANCH   1  23
BRANCH   1  47
ATOM     47  CB  LEU A   3       6.897  23.317  -4.028  0.00  0.00    +0.029 C 
BRANCH  47  48
ATOM     48  CG  LEU A   3       6.292  24.194  -5.133  0.00  0.00    +0.002 C 
ATOM     49  CD2 LEU A   3       5.129  24.995  -4.560  0.00  0.00    +0.000 C 
ATOM     50  CD1 LEU A   3       7.348  25.125  -5.709  0.00  0.00    +0.000 C 
ENDBRANCH  47  48
ENDBRANCH   1  47
TORSDOF 24
REMARK  Name = ../refined-set-2016/2ews/2ews_pocket.pdb
REMARK  213 active torsions:
REMARK  status: ('A' for Active; 'I' for Inactive)
REMARK    1  A    between atoms: _1  and  _3
REMARK    2  A    between atoms: _3  and  _4
REMARK    3  A    between atoms: _3  and  _6
REMARK    4  A    between atoms: _6  and  _7
REMARK    5  A    between atoms: _10  and  _12
REMARK    6  A    between atoms: _12  and  _13
REMARK    7  A    between atoms: _16  and  _18
REMARK    8  A    between atoms: _18  and  _19
REMARK    9  A    between atoms: _21  and  _23
REMARK   10  A    between atoms: _23  and  _24
REMARK   11  A    between atoms: _26  and  _28
REMARK   12  A    between atoms: _28  and  _29
REMARK   13  A    between atoms: _28  and  _31
REMARK   14  A    between atoms: _31  and  _32
REMARK   15  A    between atoms: _35  and  _37
REMARK   16  A    between atoms: _37  and  _38
REMARK   17  A    between atoms: _37  and  _40
REMARK   18  A    between atoms: _40  and  _41
REMARK   19  A    between atoms: _44  and  _46
REMARK   20  A    between atoms: _46  and  _47
REMARK   21  A    between atoms: _46  and  _49
REMARK   22  A    between atoms: _49  and  _50
REMARK   23  A    between atoms: _53  and  _55
REMARK   24  A    between atoms: _55  and  _56
REMARK   25  A    between atoms: _55  and  _58
REMARK   26  A    between atoms: _58  and  _59
REMARK   27  A    between atoms: _59  and  _60
REMARK   28  A    between atoms: _60  and  _61
REMARK   29  A    between atoms: _61  and  _62
REMARK   30  A    between atoms: _66  and  _68
REMARK   31  A    between atoms: _68  and  _69
REMARK   32  A    between atoms: _68  and  _71
REMARK   33  A    between atoms: _71  and  _72
REMARK   34  A    between atoms: _75  and  _77
REMARK   35  A    between atoms: _77  and  _78
REMARK   36  A    between atoms: _77  and  _80
REMARK   37  A    between atoms: _80  and  _81
REMARK   38  A    between atoms: _81  and  _82
REMARK   39  A    between atoms: _85  and  _87
REMARK   40  A    between atoms: _87  and  _88
REMARK   41  A    between atoms: _87  and  _90
REMARK   42  A    between atoms: _90  and  _91
REMARK   43  A    between atoms: _94  and  _96
REMARK   44  A    between atoms: _96  and  _97
REMARK   45  A    between atoms: _96  and  _99
REMARK   46  A    between atoms: _99  and  _100
REMARK   47  A    between atoms: _103  and  _105
REMARK   48  A    between atoms: _105  and  _106
REMARK   49  A    between atoms: _105  and  _108
REMARK   50  A    between atoms: _108  and  _109
REMARK   51  A    between atoms: _109  and  _110
REMARK   52  A    between atoms: _110  and  _111
REMARK   53  A    between atoms: _111  and  _112
REMARK   54  A    between atoms: _116  and  _118
REMARK   55  A    between atoms: _118  and  _119
REMARK   56  A    between atoms: _118  and  _121
REMARK   57  A    between atoms: _121  and  _122
REMARK   58  A    between atoms: _125  and  _127
REMARK   59  A    between atoms: _127  and  _128
REMARK   60  A    between atoms: _130  and  _132
REMARK   61  A    between atoms: _132  and  _133
REMARK   62  A    between atoms: _135  and  _137
REMARK   63  A    between atoms: _137  and  _138
REMARK   64  A    between atoms: _137  and  _140
REMARK   65  A    between atoms: _140  and  _141
REMARK   66  A    between atoms: _146  and  _148
REMARK   67  A    between atoms: _148  and  _149
REMARK   68  A    between atoms: _148  and  _151
REMARK   69  A    between atoms: _151  and  _152
REMARK   70  A    between atoms: _152  and  _153
REMARK   71  A    between atoms: _156  and  _158
REMARK   72  A    between atoms: _158  and  _159
REMARK   73  A    between atoms: _158  and  _161
REMARK   74  A    between atoms: _161  and  _162
REMARK   75  A    between atoms: _168  and  _170
REMARK   76  A    between atoms: _170  and  _171
REMARK   77  A    between atoms: _170  and  _173
REMARK   78  A    between atoms: _173  and  _174
REMARK   79  A    between atoms: _179  and  _181
REMARK   80  A    between atoms: _181  and  _182
REMARK   81  A    between atoms: _181  and  _184
REMARK   82  A    between atoms: _187  and  _189
REMARK   83  A    between atoms: _189  and  _190
REMARK   84  A    between atoms: _192  and  _194
REMARK   85  A    between atoms: _194  and  _195
REMARK   86  A    between atoms: _194  and  _197
REMARK   87  A    between atoms: _197  and  _198
REMARK   88  A    between atoms: _201  and  _203
REMARK   89  A    between atoms: _203  and  _204
REMARK   90  A    between atoms: _206  and  _208
REMARK   91  A    between atoms: _208  and  _209
REMARK   92  A    between atoms: _208  and  _211
REMARK   93  A    between atoms: _211  and  _212
REMARK   94  A    between atoms: _215  and  _217
REMARK   95  A    between atoms: _217  and  _218
REMARK   96  A    between atoms: _217  and  _220
REMARK   97  A    between atoms: _220  and  _221
REMARK   98  A    between atoms: _223  and  _225
REMARK   99  A    between atoms: _225  and  _226
REMARK  100  A    between atoms: _228  and  _230
REMARK  101  A    between atoms: _230  and  _231
REMARK  102  A    between atoms: _233  and  _235
REMARK  103  A    between atoms: _235  and  _236
REMARK  104  A    between atoms: _238  and  _240
REMARK  105  A    between atoms: _240  and  _241
REMARK  106  A    between atoms: _240  and  _243
REMARK  107  A    between atoms: _243  and  _244
REMARK  108  A    between atoms: _244  and  _245
REMARK  109  A    between atoms: _247  and  _249
REMARK  110  A    between atoms: _249  and  _250
REMARK  111  A    between atoms: _249  and  _252
REMARK  112  A    between atoms: _252  and  _253
REMARK  113  A    between atoms: _256  and  _258
REMARK  114  A    between atoms: _258  and  _259
REMARK  115  A    between atoms: _258  and  _261
REMARK  116  A    between atoms: _261  and  _262
REMARK  117  A    between atoms: _262  and  _263
REMARK  118  A    between atoms: _268  and  _270
REMARK  119  A    between atoms: _270  and  _271
REMARK  120  A    between atoms: _273  and  _275
REMARK  121  A    between atoms: _275  and  _276
REMARK  122  A    between atoms: _275  and  _278
REMARK  123  A    between atoms: _278  and  _279
REMARK  124  A    between atoms: _282  and  _284
REMARK  125  A    between atoms: _284  and  _285
REMARK  126  A    between atoms: _284  and  _287
REMARK  127  A    between atoms: _287  and  _288
REMARK  128  A    between atoms: _291  and  _293
REMARK  129  A    between atoms: _293  and  _294
REMARK  130  A    between atoms: _293  and  _296
REMARK  131  A    between atoms: _296  and  _297
REMARK  132  A    between atoms: _302  and  _303
REMARK  133  A    between atoms: _305  and  _307
REMARK  134  A    between atoms: _307  and  _308
REMARK  135  A    between atoms: _307  and  _310
REMARK  136  A    between atoms: _310  and  _311
REMARK  137  A    between atoms: _311  and  _312
REMARK  138  A    between atoms: _312  and  _313
REMARK  139  A    between atoms: _313  and  _314
REMARK  140  A    between atoms: _318  and  _320
REMARK  141  A    between atoms: _320  and  _321
REMARK  142  A    between atoms: _320  and  _323
REMARK  143  A    between atoms: _323  and  _324
REMARK  144  A    between atoms: _327  and  _329
REMARK  145  A    between atoms: _329  and  _330
REMARK  146  A    between atoms: _329  and  _332
REMARK  147  A    between atoms: _332  and  _333
REMARK  148  A    between atoms: _336  and  _338
REMARK  149  A    between atoms: _338  and  _339
REMARK  150  A    between atoms: _338  and  _341
REMARK  151  A    between atoms: _341  and  _342
REMARK  152  A    between atoms: _345  and  _347
REMARK  153  A    between atoms: _347  and  _348
REMARK  154  A    between atoms: _350  and  _352
REMARK  155  A    between atoms: _352  and  _353
REMARK  156  A    between atoms: _352  and  _355
REMARK  157  A    between atoms: _355  and  _356
REMARK  158  A    between atoms: _358  and  _360
REMARK  159  A    between atoms: _360  and  _361
REMARK  160  A    between atoms: _360  and  _363
REMARK  161  A    between atoms: _363  and  _364
REMARK  162  A    between atoms: _366  and  _368
REMARK  163  A    between atoms: _368  and  _369
REMARK  164  A    between atoms: _368  and  _371
REMARK  165  A    between atoms: _371  and  _372
REMARK  166  A    between atoms: _378  and  _380
REMARK  167  A    between atoms: _380  and  _381
REMARK  168  A    between atoms: _380  and  _383
REMARK  169  A    between atoms: _383  and  _384
REMARK  170  A    between atoms: _389  and  _391
REMARK  171  A    between atoms: _391  and  _392
REMARK  172  A    between atoms: _391  and  _394
REMARK  173  A    between atoms: _394  and  _395
REMARK  174  A    between atoms: _400  and  _402
REMARK  175  A    between atoms: _402  and  _403
REMARK  176  A    between atoms: _402  and  _405
REMARK  177  A    between atoms: _405  and  _406
REMARK  178  A    between atoms: _411  and  _413
REMARK  179  A    between atoms: _413  and  _414
REMARK  180  A    between atoms: _413  and  _416
REMARK  181  A    between atoms: _416  and  _417
REMARK  182  A    between atoms: _420  and  _422
REMARK  183  A    between atoms: _422  and  _423
REMARK  184  A    between atoms: _425  and  _427
REMARK  185  A    between atoms: _427  and  _428
REMARK  186  A    between atoms: _431  and  _433
REMARK  187  A    between atoms: _433  and  _434
REMARK  188  A    between atoms: _433  and  _436
REMARK  189  A    between atoms: _436  and  _437
REMARK  190  A    between atoms: _443  and  _445
REMARK  191  A    between atoms: _445  and  _446
REMARK  192  A    between atoms: _445  and  _448
REMARK  193  A    between atoms: _448  and  _449
REMARK  194  A    between atoms: _451  and  _453
REMARK  195  A    between atoms: _453  and  _454
REMARK  196  A    between atoms: _456  and  _458
REMARK  197  A    between atoms: _458  and  _459
REMARK  198  A    between atoms: _458  and  _461
REMARK  199  A    between atoms: _461  and  _462
REMARK  200  A    between atoms: _465  and  _467
REMARK  201  A    between atoms: _467  and  _468
REMARK  202  A    between atoms: _467  and  _470
REMARK  203  A    between atoms: _470  and  _471
REMARK  204  A    between atoms: _474  and  _476
REMARK  205  A    between atoms: _476  and  _477
REMARK  206  A    between atoms: _480  and  _482
REMARK  207  A    between atoms: _482  and  _483
REMARK  208  A    between atoms: _486  and  _488
REMARK  209  A    between atoms: _488  and  _489
REMARK  210  A    between atoms: _491  and  _493
REMARK  211  A    between atoms: _493  and  _494
REMARK  212  A    between atoms: _493  and  _496
REMARK  213  A    between atoms: _496  and  _497
REMARK                            x       y       z     vdW  Elec       q    Type
REMARK                         _______ _______ _______ _____ _____    ______ ____
ROOT
ATOM      1  C   GLY A   2      19.756  17.429   0.294  0.00  0.00    +0.243 C 
ATOM      2  N   GLY A   3      19.424  18.481   1.035  0.00  0.00    -0.295 N 
ATOM      3  H   GLY A   3      19.394  19.425   0.600  0.00  0.00    +0.150 HD
ATOM      4  O   GLY A   2      19.775  16.274   0.727  0.00  0.00    -0.273 OA
ENDROOT
BRANCH   1   5
ATOM      5  CA  GLY A   2      20.101  17.701  -1.151  0.00  0.00    +0.176 C 
BRANCH   5   7
ATOM      6  C   THR A   1      20.200  15.660  -2.431  0.00  0.00    +0.241 C 
ATOM      7  N   GLY A   2      20.827  16.563  -1.686  0.00  0.00    -0.295 N 
ATOM      8  H   GLY A   2      21.842  16.455  -1.485  0.00  0.00    +0.150 HD
ATOM      9  O   THR A   1      18.989  15.728  -2.684  0.00  0.00    -0.274 OA
BRANCH   6  10
ATOM     10  CA  THR A   1      21.042  14.488  -2.950  0.00  0.00    +0.172 C 
BRANCH  10  11
ATOM     11  N   THR A   1      20.130  13.539  -3.579  0.00  0.00    -0.236 NA
ATOM     12  H   THR A   1      19.195  13.871  -3.890  0.00  0.00    +0.142 HD
ENDBRANCH  10  11
BRANCH  10  13
ATOM     13  CB  THR A   1      22.149  14.986  -3.934  0.00  0.00    +0.135 C 
ATOM     14  CG2 THR A   1      21.550  15.853  -5.043  0.00  0.00    +0.034 C 
BRANCH  13  15
ATOM     15  OG1 THR A   1      23.125  15.745  -3.207  0.00  0.00    -0.383 OA
ATOM     16  HG1 THR A   1      23.534  15.173  -2.510  0.00  0.00    +0.210 HD
ENDBRANCH  13  15
ENDBRANCH  10  13
ENDBRANCH   6  10
ENDBRANCH   5   7
ENDBRANCH   1   5
BRANCH   2  17
ATOM     17  CA  GLY A   3      19.103  18.331   2.444  0.00  0.00    +0.176 C 
BRANCH  17  18
ATOM     18  C   GLY A   3      17.886  17.482   2.774  0.00  0.00    +0.243 C 
ATOM     19  O   GLY A   3      17.743  17.020   3.910  0.00  0.00    -0.273 OA
ATOM     20  N   ASN A   4      17.004  17.273   1.801  0.00  0.00    -0.298 N 
ATOM     21  H   ASN A   4      17.167  17.679   0.858  0.00  0.00    +0.150 HD
BRANCH  20  22
ATOM     22  CA  ASN A   4      15.809  16.477   2.052  0.00  0.00    +0.146 C 
BRANCH  22  23
ATOM     23  C   ASN A   4      15.821  15.103   1.411  0.00  0.00    +0.227 C 
ATOM     24  O   ASN A   4      14.775  14.470   1.281  0.00  0.00    -0.286 OA
ENDBRANCH  22  23
BRANCH  22  25
ATOM     25  CB  ASN A   4      14.558  17.240   1.607  0.00  0.00    +0.112 C 
BRANCH  25  26
ATOM     26  CG  ASN A   4      14.187  18.333   2.573  0.00  0.00    +0.222 C 
ATOM     27  OD1 ASN A   4      14.035  18.083   3.768  0.00  0.00    -0.275 OA
ATOM     28  ND2 ASN A   4      14.044  19.559   2.069  0.00  0.00    -0.329 N 
ATOM     29 HD21 ASN A   4      13.794  20.352   2.694  0.00  0.00    +0.145 HD
ATOM     30 HD22 ASN A   4      14.183  19.722   1.051  0.00  0.00    +0.145 HD
ENDBRANCH  25  26
ENDBRANCH  22  25
ENDBRANCH  20  22
ENDBRANCH  17  18
ENDBRANCH   2  17
TORSDOF 12
REMARK  Name = ../refined-set-2016/2ews/2ews_pocket.pdb
REMARK  213 active torsions:
REMARK  status: ('A' for Active; 'I' for Inactive)
REMARK    1  A    between atoms: _1  and  _3
REMARK    2  A    between atoms: _3  and  _4
REMARK    3  A    between atoms: _3  and  _6
REMARK    4  A    between atoms: _6  and  _7
REMARK    5  A    between atoms: _10  and  _12
REMARK    6  A    between atoms: _12  and  _13
REMARK    7  A    between atoms: _16  and  _18
REMARK    8  A    between atoms: _18  and  _19
REMARK    9  A    between atoms: _21  and  _23
REMARK   10  A    between atoms: _23  and  _24
REMARK   11  A    between atoms: _26  and  _28
REMARK   12  A    between atoms: _28  and  _29
REMARK   13  A    between atoms: _28  and  _31
REMARK   14  A    between atoms: _31  and  _32
REMARK   15  A    between atoms: _35  and  _37
REMARK   16  A    between atoms: _37  and  _38
REMARK   17  A    between atoms: _37  and  _40
REMARK   18  A    between atoms: _40  and  _41
REMARK   19  A    between atoms: _44  and  _46
REMARK   20  A    between atoms: _46  and  _47
REMARK   21  A    between atoms: _46  and  _49
REMARK   22  A    between atoms: _49  and  _50
REMARK   23  A    between atoms: _53  and  _55
REMARK   24  A    between atoms: _55  and  _56
REMARK   25  A    between atoms: _55  and  _58
REMARK   26  A    between atoms: _58  and  _59
REMARK   27  A    between atoms: _59  and  _60
REMARK   28  A    between atoms: _60  and  _61
REMARK   29  A    between atoms: _61  and  _62
REMARK   30  A    between atoms: _66  and  _68
REMARK   31  A    between atoms: _68  and  _69
REMARK   32  A    between atoms: _68  and  _71
REMARK   33  A    between atoms: _71  and  _72
REMARK   34  A    between atoms: _75  and  _77
REMARK   35  A    between atoms: _77  and  _78
REMARK   36  A    between atoms: _77  and  _80
REMARK   37  A    between atoms: _80  and  _81
REMARK   38  A    between atoms: _81  and  _82
REMARK   39  A    between atoms: _85  and  _87
REMARK   40  A    between atoms: _87  and  _88
REMARK   41  A    between atoms: _87  and  _90
REMARK   42  A    between atoms: _90  and  _91
REMARK   43  A    between atoms: _94  and  _96
REMARK   44  A    between atoms: _96  and  _97
REMARK   45  A    between atoms: _96  and  _99
REMARK   46  A    between atoms: _99  and  _100
REMARK   47  A    between atoms: _103  and  _105
REMARK   48  A    between atoms: _105  and  _106
REMARK   49  A    between atoms: _105  and  _108
REMARK   50  A    between atoms: _108  and  _109
REMARK   51  A    between atoms: _109  and  _110
REMARK   52  A    between atoms: _110  and  _111
REMARK   53  A    between atoms: _111  and  _112
REMARK   54  A    between atoms: _116  and  _118
REMARK   55  A    between atoms: _118  and  _119
REMARK   56  A    between atoms: _118  and  _121
REMARK   57  A    between atoms: _121  and  _122
REMARK   58  A    between atoms: _125  and  _127
REMARK   59  A    between atoms: _127  and  _128
REMARK   60  A    between atoms: _130  and  _132
REMARK   61  A    between atoms: _132  and  _133
REMARK   62  A    between atoms: _135  and  _137
REMARK   63  A    between atoms: _137  and  _138
REMARK   64  A    between atoms: _137  and  _140
REMARK   65  A    between atoms: _140  and  _141
REMARK   66  A    between atoms: _146  and  _148
REMARK   67  A    between atoms: _148  and  _149
REMARK   68  A    between atoms: _148  and  _151
REMARK   69  A    between atoms: _151  and  _152
REMARK   70  A    between atoms: _152  and  _153
REMARK   71  A    between atoms: _156  and  _158
REMARK   72  A    between atoms: _158  and  _159
REMARK   73  A    between atoms: _158  and  _161
REMARK   74  A    between atoms: _161  and  _162
REMARK   75  A    between atoms: _168  and  _170
REMARK   76  A    between atoms: _170  and  _171
REMARK   77  A    between atoms: _170  and  _173
REMARK   78  A    between atoms: _173  and  _174
REMARK   79  A    between atoms: _179  and  _181
REMARK   80  A    between atoms: _181  and  _182
REMARK   81  A    between atoms: _181  and  _184
REMARK   82  A    between atoms: _187  and  _189
REMARK   83  A    between atoms: _189  and  _190
REMARK   84  A    between atoms: _192  and  _194
REMARK   85  A    between atoms: _194  and  _195
REMARK   86  A    between atoms: _194  and  _197
REMARK   87  A    between atoms: _197  and  _198
REMARK   88  A    between atoms: _201  and  _203
REMARK   89  A    between atoms: _203  and  _204
REMARK   90  A    between atoms: _206  and  _208
REMARK   91  A    between atoms: _208  and  _209
REMARK   92  A    between atoms: _208  and  _211
REMARK   93  A    between atoms: _211  and  _212
REMARK   94  A    between atoms: _215  and  _217
REMARK   95  A    between atoms: _217  and  _218
REMARK   96  A    between atoms: _217  and  _220
REMARK   97  A    between atoms: _220  and  _221
REMARK   98  A    between atoms: _223  and  _225
REMARK   99  A    between atoms: _225  and  _226
REMARK  100  A    between atoms: _228  and  _230
REMARK  101  A    between atoms: _230  and  _231
REMARK  102  A    between atoms: _233  and  _235
REMARK  103  A    between atoms: _235  and  _236
REMARK  104  A    between atoms: _238  and  _240
REMARK  105  A    between atoms: _240  and  _241
REMARK  106  A    between atoms: _240  and  _243
REMARK  107  A    between atoms: _243  and  _244
REMARK  108  A    between atoms: _244  and  _245
REMARK  109  A    between atoms: _247  and  _249
REMARK  110  A    between atoms: _249  and  _250
REMARK  111  A    between atoms: _249  and  _252
REMARK  112  A    between atoms: _252  and  _253
REMARK  113  A    between atoms: _256  and  _258
REMARK  114  A    between atoms: _258  and  _259
REMARK  115  A    between atoms: _258  and  _261
REMARK  116  A    between atoms: _261  and  _262
REMARK  117  A    between atoms: _262  and  _263
REMARK  118  A    between atoms: _268  and  _270
REMARK  119  A    between atoms: _270  and  _271
REMARK  120  A    between atoms: _273  and  _275
REMARK  121  A    between atoms: _275  and  _276
REMARK  122  A    between atoms: _275  and  _278
REMARK  123  A    between atoms: _278  and  _279
REMARK  124  A    between atoms: _282  and  _284
REMARK  125  A    between atoms: _284  and  _285
REMARK  126  A    between atoms: _284  and  _287
REMARK  127  A    between atoms: _287  and  _288
REMARK  128  A    between atoms: _291  and  _293
REMARK  129  A    between atoms: _293  and  _294
REMARK  130  A    between atoms: _293  and  _296
REMARK  131  A    between atoms: _296  and  _297
REMARK  132  A    between atoms: _302  and  _303
REMARK  133  A    between atoms: _305  and  _307
REMARK  134  A    between atoms: _307  and  _308
REMARK  135  A    between atoms: _307  and  _310
REMARK  136  A    between atoms: _310  and  _311
REMARK  137  A    between atoms: _311  and  _312
REMARK  138  A    between atoms: _312  and  _313
REMARK  139  A    between atoms: _313  and  _314
REMARK  140  A    between atoms: _318  and  _320
REMARK  141  A    between atoms: _320  and  _321
REMARK  142  A    between atoms: _320  and  _323
REMARK  143  A    between atoms: _323  and  _324
REMARK  144  A    between atoms: _327  and  _329
REMARK  145  A    between atoms: _329  and  _330
REMARK  146  A    between atoms: _329  and  _332
REMARK  147  A    between atoms: _332  and  _333
REMARK  148  A    between atoms: _336  and  _338
REMARK  149  A    between atoms: _338  and  _339
REMARK  150  A    between atoms: _338  and  _341
REMARK  151  A    between atoms: _341  and  _342
REMARK  152  A    between atoms: _345  and  _347
REMARK  153  A    between atoms: _347  and  _348
REMARK  154  A    between atoms: _350  and  _352
REMARK  155  A    between atoms: _352  and  _353
REMARK  156  A    between atoms: _352  and  _355
REMARK  157  A    between atoms: _355  and  _356
REMARK  158  A    between atoms: _358  and  _360
REMARK  159  A    between atoms: _360  and  _361
REMARK  160  A    between atoms: _360  and  _363
REMARK  161  A    between atoms: _363  and  _364
REMARK  162  A    between atoms: _366  and  _368
REMARK  163  A    between atoms: _368  and  _369
REMARK  164  A    between atoms: _368  and  _371
REMARK  165  A    between atoms: _371  and  _372
REMARK  166  A    between atoms: _378  and  _380
REMARK  167  A    between atoms: _380  and  _381
REMARK  168  A    between atoms: _380  and  _383
REMARK  169  A    between atoms: _383  and  _384
REMARK  170  A    between atoms: _389  and  _391
REMARK  171  A    between atoms: _391  and  _392
REMARK  172  A    between atoms: _391  and  _394
REMARK  173  A    between atoms: _394  and  _395
REMARK  174  A    between atoms: _400  and  _402
REMARK  175  A    between atoms: _402  and  _403
REMARK  176  A    between atoms: _402  and  _405
REMARK  177  A    between atoms: _405  and  _406
REMARK  178  A    between atoms: _411  and  _413
REMARK  179  A    between atoms: _413  and  _414
REMARK  180  A    between atoms: _413  and  _416
REMARK  181  A    between atoms: _416  and  _417
REMARK  182  A    between atoms: _420  and  _422
REMARK  183  A    between atoms: _422  and  _423
REMARK  184  A    between atoms: _425  and  _427
REMARK  185  A    between atoms: _427  and  _428
REMARK  186  A    between atoms: _431  and  _433
REMARK  187  A    between atoms: _433  and  _434
REMARK  188  A    between atoms: _433  and  _436
REMARK  189  A    between atoms: _436  and  _437
REMARK  190  A    between atoms: _443  and  _445
REMARK  191  A    between atoms: _445  and  _446
REMARK  192  A    between atoms: _445  and  _448
REMARK  193  A    between atoms: _448  and  _449
REMARK  194  A    between atoms: _451  and  _453
REMARK  195  A    between atoms: _453  and  _454
REMARK  196  A    between atoms: _456  and  _458
REMARK  197  A    between atoms: _458  and  _459
REMARK  198  A    between atoms: _458  and  _461
REMARK  199  A    between atoms: _461  and  _462
REMARK  200  A    between atoms: _465  and  _467
REMARK  201  A    between atoms: _467  and  _468
REMARK  202  A    between atoms: _467  and  _470
REMARK  203  A    between atoms: _470  and  _471
REMARK  204  A    between atoms: _474  and  _476
REMARK  205  A    between atoms: _476  and  _477
REMARK  206  A    between atoms: _480  and  _482
REMARK  207  A    between atoms: _482  and  _483
REMARK  208  A    between atoms: _486  and  _488
REMARK  209  A    between atoms: _488  and  _489
REMARK  210  A    between atoms: _491  and  _493
REMARK  211  A    between atoms: _493  and  _494
REMARK  212  A    between atoms: _493  and  _496
REMARK  213  A    between atoms: _496  and  _497
REMARK                            x       y       z     vdW  Elec       q    Type
REMARK                         _______ _______ _______ _____ _____    ______ ____
ROOT
ATOM      1  C   GLU A   1      26.421  18.538  -3.351  0.00  0.00    +0.238 C 
ATOM      2  N   PHE A   2      27.468  18.982  -2.684  0.00  0.00    -0.298 N 
ATOM      3  H   PHE A   2      27.583  18.757  -1.675  0.00  0.00    +0.150 HD
ATOM      4  O   GLU A   1      26.251  18.791  -4.561  0.00  0.00    -0.274 OA
ENDROOT
BRANCH   1   5
ATOM      5  CA  GLU A   1      25.342  17.723  -2.627  0.00  0.00    +0.145 C 
BRANCH   5   6
ATOM      6  N   GLU A   1      25.720  16.718  -1.632  0.00  0.00    -0.238 NA
ATOM      7  H   GLU A   1      25.319  16.765  -0.674  0.00  0.00    +0.142 HD
ENDBRANCH   5   6
BRANCH   5   8
ATOM      8  CB  GLU A   1      24.276  18.676  -2.063  0.00  0.00    +0.038 C 
BRANCH   8   9
ATOM      9  CG  GLU A   1      24.694  19.763  -1.103  0.00  0.00    +0.116 C 
BRANCH   9  10
ATOM     10  CD  GLU A   1      23.573  20.767  -0.824  0.00  0.00    +0.365 C 
ATOM     11  OE2 GLU A   1      22.858  20.604   0.181  0.00  0.00    -0.246 OA
ATOM     12  OE1 GLU A   1      23.357  21.698  -1.630  0.00  0.00    -0.246 OA
ENDBRANCH   9  10
ENDBRANCH   8   9
ENDBRANCH   5   8
ENDBRANCH   1   5
BRANCH   2  13
ATOM     13  CA  PHE A   2      28.461  19.790  -3.376  0.00  0.00    +0.141 C 
BRANCH  13  14
ATOM     14  C   PHE A   2      29.147  18.996  -4.483  0.00  0.00    +0.227 C 
ATOM     15  O   PHE A   2      29.379  19.520  -5.566  0.00  0.00    -0.286 OA
ENDBRANCH  13  14
BRANCH  13  16
ATOM     16  CB  PHE A   2      29.488  20.288  -2.382  0.00  0.00    +0.054 C 
BRANCH  16  17
ATOM     17  CG  PHE A   2      28.921  21.142  -1.291  0.00  0.00    -0.020 A 
ATOM     18  CD2 PHE A   2      29.627  21.323  -0.104  0.00  0.00    -0.004 A 
ATOM     19  CE2 PHE A   2      29.112  22.122   0.914  0.00  0.00    -0.000 A 
ATOM     20  CZ  PHE A   2      27.881  22.746   0.745  0.00  0.00    -0.000 A 
ATOM     21  CE1 PHE A   2      27.174  22.569  -0.441  0.00  0.00    -0.000 A 
ATOM     22  CD1 PHE A   2      27.698  21.773  -1.446  0.00  0.00    -0.004 A 
ENDBRANCH  16  17
ENDBRANCH  13  16
ENDBRANCH   2  13
TORSDOF 9
REMARK  Name = ../refined-set-2016/2ews/2ews_pocket.pdb
REMARK  213 active torsions:
REMARK  status: ('A' for Active; 'I' for Inactive)
REMARK    1  A    between atoms: _1  and  _3
REMARK    2  A    between atoms: _3  and  _4
REMARK    3  A    between atoms: _3  and  _6
REMARK    4  A    between atoms: _6  and  _7
REMARK    5  A    between atoms: _10  and  _12
REMARK    6  A    between atoms: _12  and  _13
REMARK    7  A    between atoms: _16  and  _18
REMARK    8  A    between atoms: _18  and  _19
REMARK    9  A    between atoms: _21  and  _23
REMARK   10  A    between atoms: _23  and  _24
REMARK   11  A    between atoms: _26  and  _28
REMARK   12  A    between atoms: _28  and  _29
REMARK   13  A    between atoms: _28  and  _31
REMARK   14  A    between atoms: _31  and  _32
REMARK   15  A    between atoms: _35  and  _37
REMARK   16  A    between atoms: _37  and  _38
REMARK   17  A    between atoms: _37  and  _40
REMARK   18  A    between atoms: _40  and  _41
REMARK   19  A    between atoms: _44  and  _46
REMARK   20  A    between atoms: _46  and  _47
REMARK   21  A    between atoms: _46  and  _49
REMARK   22  A    between atoms: _49  and  _50
REMARK   23  A    between atoms: _53  and  _55
REMARK   24  A    between atoms: _55  and  _56
REMARK   25  A    between atoms: _55  and  _58
REMARK   26  A    between atoms: _58  and  _59
REMARK   27  A    between atoms: _59  and  _60
REMARK   28  A    between atoms: _60  and  _61
REMARK   29  A    between atoms: _61  and  _62
REMARK   30  A    between atoms: _66  and  _68
REMARK   31  A    between atoms: _68  and  _69
REMARK   32  A    between atoms: _68  and  _71
REMARK   33  A    between atoms: _71  and  _72
REMARK   34  A    between atoms: _75  and  _77
REMARK   35  A    between atoms: _77  and  _78
REMARK   36  A    between atoms: _77  and  _80
REMARK   37  A    between atoms: _80  and  _81
REMARK   38  A    between atoms: _81  and  _82
REMARK   39  A    between atoms: _85  and  _87
REMARK   40  A    between atoms: _87  and  _88
REMARK   41  A    between atoms: _87  and  _90
REMARK   42  A    between atoms: _90  and  _91
REMARK   43  A    between atoms: _94  and  _96
REMARK   44  A    between atoms: _96  and  _97
REMARK   45  A    between atoms: _96  and  _99
REMARK   46  A    between atoms: _99  and  _100
REMARK   47  A    between atoms: _103  and  _105
REMARK   48  A    between atoms: _105  and  _106
REMARK   49  A    between atoms: _105  and  _108
REMARK   50  A    between atoms: _108  and  _109
REMARK   51  A    between atoms: _109  and  _110
REMARK   52  A    between atoms: _110  and  _111
REMARK   53  A    between atoms: _111  and  _112
REMARK   54  A    between atoms: _116  and  _118
REMARK   55  A    between atoms: _118  and  _119
REMARK   56  A    between atoms: _118  and  _121
REMARK   57  A    between atoms: _121  and  _122
REMARK   58  A    between atoms: _125  and  _127
REMARK   59  A    between atoms: _127  and  _128
REMARK   60  A    between atoms: _130  and  _132
REMARK   61  A    between atoms: _132  and  _133
REMARK   62  A    between atoms: _135  and  _137
REMARK   63  A    between atoms: _137  and  _138
REMARK   64  A    between atoms: _137  and  _140
REMARK   65  A    between atoms: _140  and  _141
REMARK   66  A    between atoms: _146  and  _148
REMARK   67  A    between atoms: _148  and  _149
REMARK   68  A    between atoms: _148  and  _151
REMARK   69  A    between atoms: _151  and  _152
REMARK   70  A    between atoms: _152  and  _153
REMARK   71  A    between atoms: _156  and  _158
REMARK   72  A    between atoms: _158  and  _159
REMARK   73  A    between atoms: _158  and  _161
REMARK   74  A    between atoms: _161  and  _162
REMARK   75  A    between atoms: _168  and  _170
REMARK   76  A    between atoms: _170  and  _171
REMARK   77  A    between atoms: _170  and  _173
REMARK   78  A    between atoms: _173  and  _174
REMARK   79  A    between atoms: _179  and  _181
REMARK   80  A    between atoms: _181  and  _182
REMARK   81  A    between atoms: _181  and  _184
REMARK   82  A    between atoms: _187  and  _189
REMARK   83  A    between atoms: _189  and  _190
REMARK   84  A    between atoms: _192  and  _194
REMARK   85  A    between atoms: _194  and  _195
REMARK   86  A    between atoms: _194  and  _197
REMARK   87  A    between atoms: _197  and  _198
REMARK   88  A    between atoms: _201  and  _203
REMARK   89  A    between atoms: _203  and  _204
REMARK   90  A    between atoms: _206  and  _208
REMARK   91  A    between atoms: _208  and  _209
REMARK   92  A    between atoms: _208  and  _211
REMARK   93  A    between atoms: _211  and  _212
REMARK   94  A    between atoms: _215  and  _217
REMARK   95  A    between atoms: _217  and  _218
REMARK   96  A    between atoms: _217  and  _220
REMARK   97  A    between atoms: _220  and  _221
REMARK   98  A    between atoms: _223  and  _225
REMARK   99  A    between atoms: _225  and  _226
REMARK  100  A    between atoms: _228  and  _230
REMARK  101  A    between atoms: _230  and  _231
REMARK  102  A    between atoms: _233  and  _235
REMARK  103  A    between atoms: _235  and  _236
REMARK  104  A    between atoms: _238  and  _240
REMARK  105  A    between atoms: _240  and  _241
REMARK  106  A    between atoms: _240  and  _243
REMARK  107  A    between atoms: _243  and  _244
REMARK  108  A    between atoms: _244  and  _245
REMARK  109  A    between atoms: _247  and  _249
REMARK  110  A    between atoms: _249  and  _250
REMARK  111  A    between atoms: _249  and  _252
REMARK  112  A    between atoms: _252  and  _253
REMARK  113  A    between atoms: _256  and  _258
REMARK  114  A    between atoms: _258  and  _259
REMARK  115  A    between atoms: _258  and  _261
REMARK  116  A    between atoms: _261  and  _262
REMARK  117  A    between atoms: _262  and  _263
REMARK  118  A    between atoms: _268  and  _270
REMARK  119  A    between atoms: _270  and  _271
REMARK  120  A    between atoms: _273  and  _275
REMARK  121  A    between atoms: _275  and  _276
REMARK  122  A    between atoms: _275  and  _278
REMARK  123  A    between atoms: _278  and  _279
REMARK  124  A    between atoms: _282  and  _284
REMARK  125  A    between atoms: _284  and  _285
REMARK  126  A    between atoms: _284  and  _287
REMARK  127  A    between atoms: _287  and  _288
REMARK  128  A    between atoms: _291  and  _293
REMARK  129  A    between atoms: _293  and  _294
REMARK  130  A    between atoms: _293  and  _296
REMARK  131  A    between atoms: _296  and  _297
REMARK  132  A    between atoms: _302  and  _303
REMARK  133  A    between atoms: _305  and  _307
REMARK  134  A    between atoms: _307  and  _308
REMARK  135  A    between atoms: _307  and  _310
REMARK  136  A    between atoms: _310  and  _311
REMARK  137  A    between atoms: _311  and  _312
REMARK  138  A    between atoms: _312  and  _313
REMARK  139  A    between atoms: _313  and  _314
REMARK  140  A    between atoms: _318  and  _320
REMARK  141  A    between atoms: _320  and  _321
REMARK  142  A    between atoms: _320  and  _323
REMARK  143  A    between atoms: _323  and  _324
REMARK  144  A    between atoms: _327  and  _329
REMARK  145  A    between atoms: _329  and  _330
REMARK  146  A    between atoms: _329  and  _332
REMARK  147  A    between atoms: _332  and  _333
REMARK  148  A    between atoms: _336  and  _338
REMARK  149  A    between atoms: _338  and  _339
REMARK  150  A    between atoms: _338  and  _341
REMARK  151  A    between atoms: _341  and  _342
REMARK  152  A    between atoms: _345  and  _347
REMARK  153  A    between atoms: _347  and  _348
REMARK  154  A    between atoms: _350  and  _352
REMARK  155  A    between atoms: _352  and  _353
REMARK  156  A    between atoms: _352  and  _355
REMARK  157  A    between atoms: _355  and  _356
REMARK  158  A    between atoms: _358  and  _360
REMARK  159  A    between atoms: _360  and  _361
REMARK  160  A    between atoms: _360  and  _363
REMARK  161  A    between atoms: _363  and  _364
REMARK  162  A    between atoms: _366  and  _368
REMARK  163  A    between atoms: _368  and  _369
REMARK  164  A    between atoms: _368  and  _371
REMARK  165  A    between atoms: _371  and  _372
REMARK  166  A    between atoms: _378  and  _380
REMARK  167  A    between atoms: _380  and  _381
REMARK  168  A    between atoms: _380  and  _383
REMARK  169  A    between atoms: _383  and  _384
REMARK  170  A    between atoms: _389  and  _391
REMARK  171  A    between atoms: _391  and  _392
REMARK  172  A    between atoms: _391  and  _394
REMARK  173  A    between atoms: _394  and  _395
REMARK  174  A    between atoms: _400  and  _402
REMARK  175  A    between atoms: _402  and  _403
REMARK  176  A    between atoms: _402  and  _405
REMARK  177  A    between atoms: _405  and  _406
REMARK  178  A    between atoms: _411  and  _413
REMARK  179  A    between atoms: _413  and  _414
REMARK  180  A    between atoms: _413  and  _416
REMARK  181  A    between atoms: _416  and  _417
REMARK  182  A    between atoms: _420  and  _422
REMARK  183  A    between atoms: _422  and  _423
REMARK  184  A    between atoms: _425  and  _427
REMARK  185  A    between atoms: _427  and  _428
REMARK  186  A    between atoms: _431  and  _433
REMARK  187  A    between atoms: _433  and  _434
REMARK  188  A    between atoms: _433  and  _436
REMARK  189  A    between atoms: _436  and  _437
REMARK  190  A    between atoms: _443  and  _445
REMARK  191  A    between atoms: _445  and  _446
REMARK  192  A    between atoms: _445  and  _448
REMARK  193  A    between atoms: _448  and  _449
REMARK  194  A    between atoms: _451  and  _453
REMARK  195  A    between atoms: _453  and  _454
REMARK  196  A    between atoms: _456  and  _458
REMARK  197  A    between atoms: _458  and  _459
REMARK  198  A    between atoms: _458  and  _461
REMARK  199  A    between atoms: _461  and  _462
REMARK  200  A    between atoms: _465  and  _467
REMARK  201  A    between atoms: _467  and  _468
REMARK  202  A    between atoms: _467  and  _470
REMARK  203  A    between atoms: _470  and  _471
REMARK  204  A    between atoms: _474  and  _476
REMARK  205  A    between atoms: _476  and  _477
REMARK  206  A    between atoms: _480  and  _482
REMARK  207  A    between atoms: _482  and  _483
REMARK  208  A    between atoms: _486  and  _488
REMARK  209  A    between atoms: _488  and  _489
REMARK  210  A    between atoms: _491  and  _493
REMARK  211  A    between atoms: _493  and  _494
REMARK  212  A    between atoms: _493  and  _496
REMARK  213  A    between atoms: _496  and  _497
REMARK                            x       y       z     vdW  Elec       q    Type
REMARK                         _______ _______ _______ _____ _____    ______ ____
ROOT
ATOM      1  CA  THR A   4      17.607  29.588  -1.103  0.00  0.00    +0.176 C 
ENDROOT
BRANCH   1   2
ATOM      2  C   THR A   4      18.598  30.645  -0.616  0.00  0.00    +0.243 C 
ATOM      3  O   THR A   4      18.242  31.798  -0.401  0.00  0.00    -0.273 OA
ATOM      4  N   GLY A   5      19.845  30.215  -0.459  0.00  0.00    -0.295 N 
ATOM      5  H   GLY A   5      20.054  29.210  -0.628  0.00  0.00    +0.150 HD
BRANCH   4   6
ATOM      6  CA  GLY A   5      20.923  31.093  -0.062  0.00  0.00    +0.176 C 
BRANCH   6   7
ATOM      7  C   GLY A   5      21.951  30.911  -1.163  0.00  0.00    +0.243 C 
ATOM      8  N   THR A   6      23.150  31.455  -1.004  0.00  0.00    -0.295 N 
ATOM      9  H   THR A   6      23.373  31.991  -0.141  0.00  0.00    +0.150 HD
ATOM     10  O   GLY A   5      21.662  30.253  -2.164  0.00  0.00    -0.273 OA
BRANCH   8  11
ATOM     11  CA  THR A   6      24.150  31.296  -2.046  0.00  0.00    +0.176 C 
BRANCH  11  12
ATOM     12  C   THR A   6      25.437  30.664  -1.544  0.00  0.00    +0.243 C 
ATOM     13  O   THR A   6      26.022  31.109  -0.556  0.00  0.00    -0.273 OA
ATOM     14  N   SER A   7      25.866  29.623  -2.249  0.00  0.00    -0.296 N 
ATOM     15  H   SER A   7      25.312  29.323  -3.076  0.00  0.00    +0.150 HD
BRANCH  14  16
ATOM     16  CA  SER A   7      27.073  28.882  -1.920  0.00  0.00    +0.166 C 
BRANCH  16  17
ATOM     17  C   SER A   7      28.060  29.097  -3.061  0.00  0.00    +0.229 C 
ATOM     18  O   SER A   7      27.678  29.049  -4.237  0.00  0.00    -0.286 OA
ENDBRANCH  16  17
BRANCH  16  19
ATOM     19  CB  SER A   7      26.735  27.388  -1.768  0.00  0.00    +0.165 C 
BRANCH  19  20
ATOM     20  OG  SER A   7      27.834  26.661  -1.246  0.00  0.00    -0.380 OA
ATOM     21  H   SER A   7      28.607  26.749  -1.858  0.00  0.00    +0.211 HD
ENDBRANCH  19  20
ENDBRANCH  16  19
ENDBRANCH  14  16
ENDBRANCH  11  12
BRANCH  11  22
ATOM     22  CB  THR A   6      24.470  32.644  -2.719  0.00  0.00    +0.137 C 
ATOM     23  CG2 THR A   6      25.569  32.476  -3.744  0.00  0.00    +0.034 C 
BRANCH  22  24
ATOM     24  OG1 THR A   6      23.295  33.137  -3.372  0.00  0.00    -0.382 OA
ATOM     25  HG1 THR A   6      22.575  33.262  -2.704  0.00  0.00    +0.210 HD
ENDBRANCH  22  24
ENDBRANCH  11  22
ENDBRANCH   8  11
ENDBRANCH   6   7
ENDBRANCH   4   6
ENDBRANCH   1   2
BRANCH   1  27
ATOM     26  C   GLY A   3      18.734  29.532  -3.233  0.00  0.00    +0.243 C 
ATOM     27  N   THR A   4      18.306  28.867  -2.165  0.00  0.00    -0.295 N 
ATOM     28  H   THR A   4      18.467  27.843  -2.086  0.00  0.00    +0.150 HD
ATOM     29  O   GLY A   3      18.542  30.746  -3.376  0.00  0.00    -0.273 OA
BRANCH  26  30
ATOM     30  CA  GLY A   3      19.470  28.737  -4.290  0.00  0.00    +0.176 C 
BRANCH  30  32
ATOM     31  C   VAL A   2      20.825  30.039  -5.822  0.00  0.00    +0.241 C 
ATOM     32  N   GLY A   3      20.704  29.409  -4.654  0.00  0.00    -0.295 N 
ATOM     33  H   GLY A   3      21.507  29.399  -3.993  0.00  0.00    +0.150 HD
ATOM     34  O   VAL A   2      19.926  30.089  -6.659  0.00  0.00    -0.273 OA
BRANCH  31  35
ATOM     35  CA  VAL A   2      22.168  30.709  -6.078  0.00  0.00    +0.148 C 
BRANCH  35  38
ATOM     36  C   ASN A   1      23.851  28.978  -5.886  0.00  0.00    +0.239 C 
ATOM     37  O   ASN A   1      23.774  28.976  -4.655  0.00  0.00    -0.274 OA
ATOM     38  N   VAL A   2      23.115  29.768  -6.650  0.00  0.00    -0.297 N 
ATOM     39  H   VAL A   2      23.217  29.714  -7.684  0.00  0.00    +0.150 HD
BRANCH  36  40
ATOM     40  CA  ASN A   1      24.821  28.065  -6.621  0.00  0.00    +0.154 C 
BRANCH  40  41
ATOM     41  N   ASN A   1      26.117  28.723  -6.606  0.00  0.00    -0.238 NA
ATOM     42  H   ASN A   1      26.738  28.605  -5.780  0.00  0.00    +0.142 HD
ENDBRANCH  40  41
BRANCH  40  43
ATOM     43  CB  ASN A   1      24.903  26.710  -5.918  0.00  0.00    +0.111 C 
BRANCH  43  44
ATOM     44  CG  ASN A   1      23.615  25.915  -6.035  0.00  0.00    +0.221 C 
ATOM     45  ND2 ASN A   1      23.655  24.663  -5.591  0.00  0.00    -0.329 N 
ATOM     46 HD21 ASN A   1      24.537  24.280  -5.195  0.00  0.00    +0.145 HD
ATOM     47 HD22 ASN A   1      22.804  24.067  -5.640  0.00  0.00    +0.145 HD
ATOM     48  OD1 ASN A   1      22.595  26.418  -6.514  0.00  0.00    -0.275 OA
ENDBRANCH  43  44
ENDBRANCH  40  43
ENDBRANCH  36  40
ENDBRANCH  35  38
BRANCH  35  49
ATOM     49  CB  VAL A   2      21.968  31.914  -7.015  0.00  0.00    +0.027 C 
ATOM     50  CG2 VAL A   2      21.173  32.998  -6.303  0.00  0.00    +0.002 C 
ATOM     51  CG1 VAL A   2      23.321  32.447  -7.476  0.00  0.00    +0.002 C 
ENDBRANCH  35  49
ENDBRANCH  31  35
ENDBRANCH  30  32
ENDBRANCH  26  30
ENDBRANCH   1  27
BRANCH   1  52
ATOM     52  CB  THR A   4      17.224  28.650   0.043  0.00  0.00    +0.137 C 
ATOM     53  CG2 THR A   4      16.406  29.399   1.093  0.00  0.00    +0.034 C 
BRANCH  52  54
ATOM     54  OG1 THR A   4      16.432  27.576  -0.481  0.00  0.00    -0.382 OA
ATOM     55  HG1 THR A   4      15.614  27.945  -0.900  0.00  0.00    +0.210 HD
ENDBRANCH  52  54
ENDBRANCH   1  52
TORSDOF 23
REMARK  Name = ../refined-set-2016/2ews/2ews_pocket.pdb
REMARK  213 active torsions:
REMARK  status: ('A' for Active; 'I' for Inactive)
REMARK    1  A    between atoms: _1  and  _3
REMARK    2  A    between atoms: _3  and  _4
REMARK    3  A    between atoms: _3  and  _6
REMARK    4  A    between atoms: _6  and  _7
REMARK    5  A    between atoms: _10  and  _12
REMARK    6  A    between atoms: _12  and  _13
REMARK    7  A    between atoms: _16  and  _18
REMARK    8  A    between atoms: _18  and  _19
REMARK    9  A    between atoms: _21  and  _23
REMARK   10  A    between atoms: _23  and  _24
REMARK   11  A    between atoms: _26  and  _28
REMARK   12  A    between atoms: _28  and  _29
REMARK   13  A    between atoms: _28  and  _31
REMARK   14  A    between atoms: _31  and  _32
REMARK   15  A    between atoms: _35  and  _37
REMARK   16  A    between atoms: _37  and  _38
REMARK   17  A    between atoms: _37  and  _40
REMARK   18  A    between atoms: _40  and  _41
REMARK   19  A    between atoms: _44  and  _46
REMARK   20  A    between atoms: _46  and  _47
REMARK   21  A    between atoms: _46  and  _49
REMARK   22  A    between atoms: _49  and  _50
REMARK   23  A    between atoms: _53  and  _55
REMARK   24  A    between atoms: _55  and  _56
REMARK   25  A    between atoms: _55  and  _58
REMARK   26  A    between atoms: _58  and  _59
REMARK   27  A    between atoms: _59  and  _60
REMARK   28  A    between atoms: _60  and  _61
REMARK   29  A    between atoms: _61  and  _62
REMARK   30  A    between atoms: _66  and  _68
REMARK   31  A    between atoms: _68  and  _69
REMARK   32  A    between atoms: _68  and  _71
REMARK   33  A    between atoms: _71  and  _72
REMARK   34  A    between atoms: _75  and  _77
REMARK   35  A    between atoms: _77  and  _78
REMARK   36  A    between atoms: _77  and  _80
REMARK   37  A    between atoms: _80  and  _81
REMARK   38  A    between atoms: _81  and  _82
REMARK   39  A    between atoms: _85  and  _87
REMARK   40  A    between atoms: _87  and  _88
REMARK   41  A    between atoms: _87  and  _90
REMARK   42  A    between atoms: _90  and  _91
REMARK   43  A    between atoms: _94  and  _96
REMARK   44  A    between atoms: _96  and  _97
REMARK   45  A    between atoms: _96  and  _99
REMARK   46  A    between atoms: _99  and  _100
REMARK   47  A    between atoms: _103  and  _105
REMARK   48  A    between atoms: _105  and  _106
REMARK   49  A    between atoms: _105  and  _108
REMARK   50  A    between atoms: _108  and  _109
REMARK   51  A    between atoms: _109  and  _110
REMARK   52  A    between atoms: _110  and  _111
REMARK   53  A    between atoms: _111  and  _112
REMARK   54  A    between atoms: _116  and  _118
REMARK   55  A    between atoms: _118  and  _119
REMARK   56  A    between atoms: _118  and  _121
REMARK   57  A    between atoms: _121  and  _122
REMARK   58  A    between atoms: _125  and  _127
REMARK   59  A    between atoms: _127  and  _128
REMARK   60  A    between atoms: _130  and  _132
REMARK   61  A    between atoms: _132  and  _133
REMARK   62  A    between atoms: _135  and  _137
REMARK   63  A    between atoms: _137  and  _138
REMARK   64  A    between atoms: _137  and  _140
REMARK   65  A    between atoms: _140  and  _141
REMARK   66  A    between atoms: _146  and  _148
REMARK   67  A    between atoms: _148  and  _149
REMARK   68  A    between atoms: _148  and  _151
REMARK   69  A    between atoms: _151  and  _152
REMARK   70  A    between atoms: _152  and  _153
REMARK   71  A    between atoms: _156  and  _158
REMARK   72  A    between atoms: _158  and  _159
REMARK   73  A    between atoms: _158  and  _161
REMARK   74  A    between atoms: _161  and  _162
REMARK   75  A    between atoms: _168  and  _170
REMARK   76  A    between atoms: _170  and  _171
REMARK   77  A    between atoms: _170  and  _173
REMARK   78  A    between atoms: _173  and  _174
REMARK   79  A    between atoms: _179  and  _181
REMARK   80  A    between atoms: _181  and  _182
REMARK   81  A    between atoms: _181  and  _184
REMARK   82  A    between atoms: _187  and  _189
REMARK   83  A    between atoms: _189  and  _190
REMARK   84  A    between atoms: _192  and  _194
REMARK   85  A    between atoms: _194  and  _195
REMARK   86  A    between atoms: _194  and  _197
REMARK   87  A    between atoms: _197  and  _198
REMARK   88  A    between atoms: _201  and  _203
REMARK   89  A    between atoms: _203  and  _204
REMARK   90  A    between atoms: _206  and  _208
REMARK   91  A    between atoms: _208  and  _209
REMARK   92  A    between atoms: _208  and  _211
REMARK   93  A    between atoms: _211  and  _212
REMARK   94  A    between atoms: _215  and  _217
REMARK   95  A    between atoms: _217  and  _218
REMARK   96  A    between atoms: _217  and  _220
REMARK   97  A    between atoms: _220  and  _221
REMARK   98  A    between atoms: _223  and  _225
REMARK   99  A    between atoms: _225  and  _226
REMARK  100  A    between atoms: _228  and  _230
REMARK  101  A    between atoms: _230  and  _231
REMARK  102  A    between atoms: _233  and  _235
REMARK  103  A    between atoms: _235  and  _236
REMARK  104  A    between atoms: _238  and  _240
REMARK  105  A    between atoms: _240  and  _241
REMARK  106  A    between atoms: _240  and  _243
REMARK  107  A    between atoms: _243  and  _244
REMARK  108  A    between atoms: _244  and  _245
REMARK  109  A    between atoms: _247  and  _249
REMARK  110  A    between atoms: _249  and  _250
REMARK  111  A    between atoms: _249  and  _252
REMARK  112  A    between atoms: _252  and  _253
REMARK  113  A    between atoms: _256  and  _258
REMARK  114  A    between atoms: _258  and  _259
REMARK  115  A    between atoms: _258  and  _261
REMARK  116  A    between atoms: _261  and  _262
REMARK  117  A    between atoms: _262  and  _263
REMARK  118  A    between atoms: _268  and  _270
REMARK  119  A    between atoms: _270  and  _271
REMARK  120  A    between atoms: _273  and  _275
REMARK  121  A    between atoms: _275  and  _276
REMARK  122  A    between atoms: _275  and  _278
REMARK  123  A    between atoms: _278  and  _279
REMARK  124  A    between atoms: _282  and  _284
REMARK  125  A    between atoms: _284  and  _285
REMARK  126  A    between atoms: _284  and  _287
REMARK  127  A    between atoms: _287  and  _288
REMARK  128  A    between atoms: _291  and  _293
REMARK  129  A    between atoms: _293  and  _294
REMARK  130  A    between atoms: _293  and  _296
REMARK  131  A    between atoms: _296  and  _297
REMARK  132  A    between atoms: _302  and  _303
REMARK  133  A    between atoms: _305  and  _307
REMARK  134  A    between atoms: _307  and  _308
REMARK  135  A    between atoms: _307  and  _310
REMARK  136  A    between atoms: _310  and  _311
REMARK  137  A    between atoms: _311  and  _312
REMARK  138  A    between atoms: _312  and  _313
REMARK  139  A    between atoms: _313  and  _314
REMARK  140  A    between atoms: _318  and  _320
REMARK  141  A    between atoms: _320  and  _321
REMARK  142  A    between atoms: _320  and  _323
REMARK  143  A    between atoms: _323  and  _324
REMARK  144  A    between atoms: _327  and  _329
REMARK  145  A    between atoms: _329  and  _330
REMARK  146  A    between atoms: _329  and  _332
REMARK  147  A    between atoms: _332  and  _333
REMARK  148  A    between atoms: _336  and  _338
REMARK  149  A    between atoms: _338  and  _339
REMARK  150  A    between atoms: _338  and  _341
REMARK  151  A    between atoms: _341  and  _342
REMARK  152  A    between atoms: _345  and  _347
REMARK  153  A    between atoms: _347  and  _348
REMARK  154  A    between atoms: _350  and  _352
REMARK  155  A    between atoms: _352  and  _353
REMARK  156  A    between atoms: _352  and  _355
REMARK  157  A    between atoms: _355  and  _356
REMARK  158  A    between atoms: _358  and  _360
REMARK  159  A    between atoms: _360  and  _361
REMARK  160  A    between atoms: _360  and  _363
REMARK  161  A    between atoms: _363  and  _364
REMARK  162  A    between atoms: _366  and  _368
REMARK  163  A    between atoms: _368  and  _369
REMARK  164  A    between atoms: _368  and  _371
REMARK  165  A    between atoms: _371  and  _372
REMARK  166  A    between atoms: _378  and  _380
REMARK  167  A    between atoms: _380  and  _381
REMARK  168  A    between atoms: _380  and  _383
REMARK  169  A    between atoms: _383  and  _384
REMARK  170  A    between atoms: _389  and  _391
REMARK  171  A    between atoms: _391  and  _392
REMARK  172  A    between atoms: _391  and  _394
REMARK  173  A    between atoms: _394  and  _395
REMARK  174  A    between atoms: _400  and  _402
REMARK  175  A    between atoms: _402  and  _403
REMARK  176  A    between atoms: _402  and  _405
REMARK  177  A    between atoms: _405  and  _406
REMARK  178  A    between atoms: _411  and  _413
REMARK  179  A    between atoms: _413  and  _414
REMARK  180  A    between atoms: _413  and  _416
REMARK  181  A    between atoms: _416  and  _417
REMARK  182  A    between atoms: _420  and  _422
REMARK  183  A    between atoms: _422  and  _423
REMARK  184  A    between atoms: _425  and  _427
REMARK  185  A    between atoms: _427  and  _428
REMARK  186  A    between atoms: _431  and  _433
REMARK  187  A    between atoms: _433  and  _434
REMARK  188  A    between atoms: _433  and  _436
REMARK  189  A    between atoms: _436  and  _437
REMARK  190  A    between atoms: _443  and  _445
REMARK  191  A    between atoms: _445  and  _446
REMARK  192  A    between atoms: _445  and  _448
REMARK  193  A    between atoms: _448  and  _449
REMARK  194  A    between atoms: _451  and  _453
REMARK  195  A    between atoms: _453  and  _454
REMARK  196  A    between atoms: _456  and  _458
REMARK  197  A    between atoms: _458  and  _459
REMARK  198  A    between atoms: _458  and  _461
REMARK  199  A    between atoms: _461  and  _462
REMARK  200  A    between atoms: _465  and  _467
REMARK  201  A    between atoms: _467  and  _468
REMARK  202  A    between atoms: _467  and  _470
REMARK  203  A    between atoms: _470  and  _471
REMARK  204  A    between atoms: _474  and  _476
REMARK  205  A    between atoms: _476  and  _477
REMARK  206  A    between atoms: _480  and  _482
REMARK  207  A    between atoms: _482  and  _483
REMARK  208  A    between atoms: _486  and  _488
REMARK  209  A    between atoms: _488  and  _489
REMARK  210  A    between atoms: _491  and  _493
REMARK  211  A    between atoms: _493  and  _494
REMARK  212  A    between atoms: _493  and  _496
REMARK  213  A    between atoms: _496  and  _497
REMARK                            x       y       z     vdW  Elec       q    Type
REMARK                         _______ _______ _______ _____ _____    ______ ____
ROOT
ATOM      1  C   MET A   4      14.826  37.536  -1.102  0.00  0.00    +0.241 C 
ATOM      2  O   MET A   4      14.006  38.414  -0.828  0.00  0.00    -0.273 OA
ATOM      3  N   ILE A   5      15.017  37.099  -2.341  0.00  0.00    -0.297 N 
ATOM      4  H   ILE A   5      15.725  36.359  -2.525  0.00  0.00    +0.150 HD
ENDROOT
BRANCH   3   5
ATOM      5  CA  ILE A   5      14.244  37.647  -3.442  0.00  0.00    +0.149 C 
BRANCH   5   6
ATOM      6  C   ILE A   5      12.777  37.452  -3.116  0.00  0.00    +0.241 C 
ATOM      7  N   GLN A   6      12.420  36.241  -2.684  0.00  0.00    -0.297 N 
ATOM      8  H   GLN A   6      13.146  35.503  -2.591  0.00  0.00    +0.150 HD
ATOM      9  O   ILE A   5      11.991  38.381  -3.226  0.00  0.00    -0.273 OA
BRANCH   7  10
ATOM     10  CA  GLN A   6      11.039  35.925  -2.339  0.00  0.00    +0.149 C 
BRANCH  10  11
ATOM     11  C   GLN A   6      10.598  36.637  -1.069  0.00  0.00    +0.241 C 
ATOM     12  N   GLY A   7      11.430  36.548  -0.036  0.00  0.00    -0.296 N 
ATOM     13  H   GLY A   7      12.329  36.036  -0.144  0.00  0.00    +0.150 HD
ATOM     14  O   GLN A   6       9.526  37.240  -1.024  0.00  0.00    -0.273 OA
BRANCH  12  15
ATOM     15  CA  GLY A   7      11.100  37.157   1.242  0.00  0.00    +0.163 C 
BRANCH  15  16
ATOM     16  C   GLY A   7      10.985  38.663   1.196  0.00  0.00    +0.229 C 
ATOM     17  O   GLY A   7       9.916  39.220   1.433  0.00  0.00    -0.286 OA
ENDBRANCH  15  16
ENDBRANCH  12  15
ENDBRANCH  10  11
BRANCH  10  18
ATOM     18  CB  GLN A   6      10.864  34.416  -2.120  0.00  0.00    +0.039 C 
BRANCH  18  19
ATOM     19  CG  GLN A   6      11.148  33.531  -3.323  0.00  0.00    +0.087 C 
BRANCH  19  20
ATOM     20  CD  GLN A   6      10.651  32.121  -3.094  0.00  0.00    +0.219 C 
ATOM     21  NE2 GLN A   6      11.548  31.240  -2.663  0.00  0.00    -0.329 N 
ATOM     22 HE21 GLN A   6      11.260  30.261  -2.462  0.00  0.00    +0.145 HD
ATOM     23 HE22 GLN A   6      12.537  31.530  -2.527  0.00  0.00    +0.145 HD
ATOM     24  OE1 GLN A   6       9.466  31.832  -3.273  0.00  0.00    -0.275 OA
ENDBRANCH  19  20
ENDBRANCH  18  19
ENDBRANCH  10  18
ENDBRANCH   7  10
ENDBRANCH   5   6
BRANCH   5  25
ATOM     25  CB  ILE A   5      14.586  36.946  -4.767  0.00  0.00    +0.027 C 
ATOM     26  CG2 ILE A   5      13.505  37.254  -5.820  0.00  0.00    +0.002 C 
BRANCH  25  27
ATOM     27  CG1 ILE A   5      15.972  37.393  -5.230  0.00  0.00    +0.002 C 
ATOM     28  CD1 ILE A   5      16.544  36.586  -6.374  0.00  0.00    +0.000 C 
ENDBRANCH  25  27
ENDBRANCH   5  25
ENDBRANCH   3   5
BRANCH   1  29
ATOM     29  CA  MET A   4      15.679  36.887  -0.013  0.00  0.00    +0.149 C 
BRANCH  29  32
ATOM     30  C   GLY A   3      14.730  34.640  -0.084  0.00  0.00    +0.243 C 
ATOM     31  O   GLY A   3      13.642  35.041   0.313  0.00  0.00    -0.273 OA
ATOM     32  N   MET A   4      15.771  35.446  -0.253  0.00  0.00    -0.297 N 
ATOM     33  H   MET A   4      16.677  35.042  -0.565  0.00  0.00    +0.150 HD
BRANCH  30  34
ATOM     34  CA  GLY A   3      14.957  33.165  -0.400  0.00  0.00    +0.176 C 
BRANCH  34  36
ATOM     35  C   GLY A   2      15.476  33.445  -2.734  0.00  0.00    +0.243 C 
ATOM     36  N   GLY A   3      15.848  33.005  -1.537  0.00  0.00    -0.295 N 
ATOM     37  H   GLY A   3      16.774  32.548  -1.414  0.00  0.00    +0.150 HD
ATOM     38  O   GLY A   2      14.383  33.967  -2.927  0.00  0.00    -0.273 OA
BRANCH  35  39
ATOM     39  CA  GLY A   2      16.453  33.268  -3.883  0.00  0.00    +0.176 C 
BRANCH  39  42
ATOM     40  C   GLY A   1      18.364  34.534  -3.046  0.00  0.00    +0.240 C 
ATOM     41  O   GLY A   1      17.672  35.504  -2.739  0.00  0.00    -0.274 OA
ATOM     42  N   GLY A   2      17.871  33.417  -3.582  0.00  0.00    -0.295 N 
ATOM     43  H   GLY A   2      18.517  32.629  -3.791  0.00  0.00    +0.150 HD
BRANCH  40  44
ATOM     44  CA  GLY A   1      19.857  34.563  -2.795  0.00  0.00    +0.169 C 
BRANCH  44  45
ATOM     45  N   GLY A   1      20.171  35.454  -1.694  0.00  0.00    -0.236 NA
ATOM     46  H   GLY A   1      19.402  35.887  -1.144  0.00  0.00    +0.142 HD
ENDBRANCH  44  45
ENDBRANCH  40  44
ENDBRANCH  39  42
ENDBRANCH  35  39
ENDBRANCH  34  36
ENDBRANCH  30  34
ENDBRANCH  29  32
BRANCH  29  47
ATOM     47  CB  MET A   4      17.082  37.503  -0.010  0.00  0.00    +0.041 C 
BRANCH  47  48
ATOM     48  CG  MET A   4      17.113  39.028   0.148  0.00  0.00    +0.060 C 
BRANCH  48  49
ATOM     49  SD  MET A   4      18.789  39.586   0.494  0.00  0.00    -0.139 S 
ATOM     50  CE  MET A   4      18.489  41.360   0.620  0.00  0.00    +0.069 C 
ENDBRANCH  48  49
ENDBRANCH  47  48
ENDBRANCH  29  47
ENDBRANCH   1  29
TORSDOF 22
REMARK  Name = ../refined-set-2016/2ews/2ews_pocket.pdb
REMARK  213 active torsions:
REMARK  status: ('A' for Active; 'I' for Inactive)
REMARK    1  A    between atoms: _1  and  _3
REMARK    2  A    between atoms: _3  and  _4
REMARK    3  A    between atoms: _3  and  _6
REMARK    4  A    between atoms: _6  and  _7
REMARK    5  A    between atoms: _10  and  _12
REMARK    6  A    between atoms: _12  and  _13
REMARK    7  A    between atoms: _16  and  _18
REMARK    8  A    between atoms: _18  and  _19
REMARK    9  A    between atoms: _21  and  _23
REMARK   10  A    between atoms: _23  and  _24
REMARK   11  A    between atoms: _26  and  _28
REMARK   12  A    between atoms: _28  and  _29
REMARK   13  A    between atoms: _28  and  _31
REMARK   14  A    between atoms: _31  and  _32
REMARK   15  A    between atoms: _35  and  _37
REMARK   16  A    between atoms: _37  and  _38
REMARK   17  A    between atoms: _37  and  _40
REMARK   18  A    between atoms: _40  and  _41
REMARK   19  A    between atoms: _44  and  _46
REMARK   20  A    between atoms: _46  and  _47
REMARK   21  A    between atoms: _46  and  _49
REMARK   22  A    between atoms: _49  and  _50
REMARK   23  A    between atoms: _53  and  _55
REMARK   24  A    between atoms: _55  and  _56
REMARK   25  A    between atoms: _55  and  _58
REMARK   26  A    between atoms: _58  and  _59
REMARK   27  A    between atoms: _59  and  _60
REMARK   28  A    between atoms: _60  and  _61
REMARK   29  A    between atoms: _61  and  _62
REMARK   30  A    between atoms: _66  and  _68
REMARK   31  A    between atoms: _68  and  _69
REMARK   32  A    between atoms: _68  and  _71
REMARK   33  A    between atoms: _71  and  _72
REMARK   34  A    between atoms: _75  and  _77
REMARK   35  A    between atoms: _77  and  _78
REMARK   36  A    between atoms: _77  and  _80
REMARK   37  A    between atoms: _80  and  _81
REMARK   38  A    between atoms: _81  and  _82
REMARK   39  A    between atoms: _85  and  _87
REMARK   40  A    between atoms: _87  and  _88
REMARK   41  A    between atoms: _87  and  _90
REMARK   42  A    between atoms: _90  and  _91
REMARK   43  A    between atoms: _94  and  _96
REMARK   44  A    between atoms: _96  and  _97
REMARK   45  A    between atoms: _96  and  _99
REMARK   46  A    between atoms: _99  and  _100
REMARK   47  A    between atoms: _103  and  _105
REMARK   48  A    between atoms: _105  and  _106
REMARK   49  A    between atoms: _105  and  _108
REMARK   50  A    between atoms: _108  and  _109
REMARK   51  A    between atoms: _109  and  _110
REMARK   52  A    between atoms: _110  and  _111
REMARK   53  A    between atoms: _111  and  _112
REMARK   54  A    between atoms: _116  and  _118
REMARK   55  A    between atoms: _118  and  _119
REMARK   56  A    between atoms: _118  and  _121
REMARK   57  A    between atoms: _121  and  _122
REMARK   58  A    between atoms: _125  and  _127
REMARK   59  A    between atoms: _127  and  _128
REMARK   60  A    between atoms: _130  and  _132
REMARK   61  A    between atoms: _132  and  _133
REMARK   62  A    between atoms: _135  and  _137
REMARK   63  A    between atoms: _137  and  _138
REMARK   64  A    between atoms: _137  and  _140
REMARK   65  A    between atoms: _140  and  _141
REMARK   66  A    between atoms: _146  and  _148
REMARK   67  A    between atoms: _148  and  _149
REMARK   68  A    between atoms: _148  and  _151
REMARK   69  A    between atoms: _151  and  _152
REMARK   70  A    between atoms: _152  and  _153
REMARK   71  A    between atoms: _156  and  _158
REMARK   72  A    between atoms: _158  and  _159
REMARK   73  A    between atoms: _158  and  _161
REMARK   74  A    between atoms: _161  and  _162
REMARK   75  A    between atoms: _168  and  _170
REMARK   76  A    between atoms: _170  and  _171
REMARK   77  A    between atoms: _170  and  _173
REMARK   78  A    between atoms: _173  and  _174
REMARK   79  A    between atoms: _179  and  _181
REMARK   80  A    between atoms: _181  and  _182
REMARK   81  A    between atoms: _181  and  _184
REMARK   82  A    between atoms: _187  and  _189
REMARK   83  A    between atoms: _189  and  _190
REMARK   84  A    between atoms: _192  and  _194
REMARK   85  A    between atoms: _194  and  _195
REMARK   86  A    between atoms: _194  and  _197
REMARK   87  A    between atoms: _197  and  _198
REMARK   88  A    between atoms: _201  and  _203
REMARK   89  A    between atoms: _203  and  _204
REMARK   90  A    between atoms: _206  and  _208
REMARK   91  A    between atoms: _208  and  _209
REMARK   92  A    between atoms: _208  and  _211
REMARK   93  A    between atoms: _211  and  _212
REMARK   94  A    between atoms: _215  and  _217
REMARK   95  A    between atoms: _217  and  _218
REMARK   96  A    between atoms: _217  and  _220
REMARK   97  A    between atoms: _220  and  _221
REMARK   98  A    between atoms: _223  and  _225
REMARK   99  A    between atoms: _225  and  _226
REMARK  100  A    between atoms: _228  and  _230
REMARK  101  A    between atoms: _230  and  _231
REMARK  102  A    between atoms: _233  and  _235
REMARK  103  A    between atoms: _235  and  _236
REMARK  104  A    between atoms: _238  and  _240
REMARK  105  A    between atoms: _240  and  _241
REMARK  106  A    between atoms: _240  and  _243
REMARK  107  A    between atoms: _243  and  _244
REMARK  108  A    between atoms: _244  and  _245
REMARK  109  A    between atoms: _247  and  _249
REMARK  110  A    between atoms: _249  and  _250
REMARK  111  A    between atoms: _249  and  _252
REMARK  112  A    between atoms: _252  and  _253
REMARK  113  A    between atoms: _256  and  _258
REMARK  114  A    between atoms: _258  and  _259
REMARK  115  A    between atoms: _258  and  _261
REMARK  116  A    between atoms: _261  and  _262
REMARK  117  A    between atoms: _262  and  _263
REMARK  118  A    between atoms: _268  and  _270
REMARK  119  A    between atoms: _270  and  _271
REMARK  120  A    between atoms: _273  and  _275
REMARK  121  A    between atoms: _275  and  _276
REMARK  122  A    between atoms: _275  and  _278
REMARK  123  A    between atoms: _278  and  _279
REMARK  124  A    between atoms: _282  and  _284
REMARK  125  A    between atoms: _284  and  _285
REMARK  126  A    between atoms: _284  and  _287
REMARK  127  A    between atoms: _287  and  _288
REMARK  128  A    between atoms: _291  and  _293
REMARK  129  A    between atoms: _293  and  _294
REMARK  130  A    between atoms: _293  and  _296
REMARK  131  A    between atoms: _296  and  _297
REMARK  132  A    between atoms: _302  and  _303
REMARK  133  A    between atoms: _305  and  _307
REMARK  134  A    between atoms: _307  and  _308
REMARK  135  A    between atoms: _307  and  _310
REMARK  136  A    between atoms: _310  and  _311
REMARK  137  A    between atoms: _311  and  _312
REMARK  138  A    between atoms: _312  and  _313
REMARK  139  A    between atoms: _313  and  _314
REMARK  140  A    between atoms: _318  and  _320
REMARK  141  A    between atoms: _320  and  _321
REMARK  142  A    between atoms: _320  and  _323
REMARK  143  A    between atoms: _323  and  _324
REMARK  144  A    between atoms: _327  and  _329
REMARK  145  A    between atoms: _329  and  _330
REMARK  146  A    between atoms: _329  and  _332
REMARK  147  A    between atoms: _332  and  _333
REMARK  148  A    between atoms: _336  and  _338
REMARK  149  A    between atoms: _338  and  _339
REMARK  150  A    between atoms: _338  and  _341
REMARK  151  A    between atoms: _341  and  _342
REMARK  152  A    between atoms: _345  and  _347
REMARK  153  A    between atoms: _347  and  _348
REMARK  154  A    between atoms: _350  and  _352
REMARK  155  A    between atoms: _352  and  _353
REMARK  156  A    between atoms: _352  and  _355
REMARK  157  A    between atoms: _355  and  _356
REMARK  158  A    between atoms: _358  and  _360
REMARK  159  A    between atoms: _360  and  _361
REMARK  160  A    between atoms: _360  and  _363
REMARK  161  A    between atoms: _363  and  _364
REMARK  162  A    between atoms: _366  and  _368
REMARK  163  A    between atoms: _368  and  _369
REMARK  164  A    between atoms: _368  and  _371
REMARK  165  A    between atoms: _371  and  _372
REMARK  166  A    between atoms: _378  and  _380
REMARK  167  A    between atoms: _380  and  _381
REMARK  168  A    between atoms: _380  and  _383
REMARK  169  A    between atoms: _383  and  _384
REMARK  170  A    between atoms: _389  and  _391
REMARK  171  A    between atoms: _391  and  _392
REMARK  172  A    between atoms: _391  and  _394
REMARK  173  A    between atoms: _394  and  _395
REMARK  174  A    between atoms: _400  and  _402
REMARK  175  A    between atoms: _402  and  _403
REMARK  176  A    between atoms: _402  and  _405
REMARK  177  A    between atoms: _405  and  _406
REMARK  178  A    between atoms: _411  and  _413
REMARK  179  A    between atoms: _413  and  _414
REMARK  180  A    between atoms: _413  and  _416
REMARK  181  A    between atoms: _416  and  _417
REMARK  182  A    between atoms: _420  and  _422
REMARK  183  A    between atoms: _422  and  _423
REMARK  184  A    between atoms: _425  and  _427
REMARK  185  A    between atoms: _427  and  _428
REMARK  186  A    between atoms: _431  and  _433
REMARK  187  A    between atoms: _433  and  _434
REMARK  188  A    between atoms: _433  and  _436
REMARK  189  A    between atoms: _436  and  _437
REMARK  190  A    between atoms: _443  and  _445
REMARK  191  A    between atoms: _445  and  _446
REMARK  192  A    between atoms: _445  and  _448
REMARK  193  A    between atoms: _448  and  _449
REMARK  194  A    between atoms: _451  and  _453
REMARK  195  A    between atoms: _453  and  _454
REMARK  196  A    between atoms: _456  and  _458
REMARK  197  A    between atoms: _458  and  _459
REMARK  198  A    between atoms: _458  and  _461
REMARK  199  A    between atoms: _461  and  _462
REMARK  200  A    between atoms: _465  and  _467
REMARK  201  A    between atoms: _467  and  _468
REMARK  202  A    between atoms: _467  and  _470
REMARK  203  A    between atoms: _470  and  _471
REMARK  204  A    between atoms: _474  and  _476
REMARK  205  A    between atoms: _476  and  _477
REMARK  206  A    between atoms: _480  and  _482
REMARK  207  A    between atoms: _482  and  _483
REMARK  208  A    between atoms: _486  and  _488
REMARK  209  A    between atoms: _488  and  _489
REMARK  210  A    between atoms: _491  and  _493
REMARK  211  A    between atoms: _493  and  _494
REMARK  212  A    between atoms: _493  and  _496
REMARK  213  A    between atoms: _496  and  _497
REMARK                            x       y       z     vdW  Elec       q    Type
REMARK                         _______ _______ _______ _____ _____    ______ ____
ROOT
ATOM      1  CA  TYR A   3       6.854  33.221  -7.427  0.00  0.00    +0.153 C 
ENDROOT
BRANCH   1   2
ATOM      2  C   TYR A   3       6.841  33.764  -8.854  0.00  0.00    +0.241 C 
ATOM      3  O   TYR A   3       7.614  34.665  -9.187  0.00  0.00    -0.273 OA
ATOM      4  N   LYS A   4       5.992  33.206  -9.710  0.00  0.00    -0.298 N 
ATOM      5  H   LYS A   4       5.363  32.441  -9.393  0.00  0.00    +0.150 HD
BRANCH   4   6
ATOM      6  CA  LYS A   4       5.941  33.665 -11.092  0.00  0.00    +0.137 C 
BRANCH   6   7
ATOM      7  C   LYS A   4       5.466  35.116 -11.183  0.00  0.00    +0.227 C 
ATOM      8  O   LYS A   4       6.021  35.917 -11.940  0.00  0.00    -0.286 OA
ENDBRANCH   6   7
BRANCH   6   9
ATOM      9  CB  LYS A   4       5.021  32.765 -11.930  0.00  0.00    +0.028 C 
BRANCH   9  10
ATOM     10  CG  LYS A   4       4.993  33.138 -13.421  0.00  0.00    -0.000 C 
BRANCH  10  11
ATOM     11  CD  LYS A   4       4.192  32.134 -14.253  0.00  0.00    -0.024 C 
BRANCH  11  12
ATOM     12  CE  LYS A   4       4.287  32.434 -15.755  0.00  0.00    -0.086 C 
BRANCH  12  13
ATOM     13  NZ  LYS A   4       3.711  33.766 -16.105  0.00  0.00    +0.380 N 
ATOM     14  HZ1 LYS A   4       4.227  34.511 -15.594  0.00  0.00    -0.089 HD
ATOM     15  HZ2 LYS A   4       2.707  33.790 -15.834  0.00  0.00    -0.089 HD
ATOM     16  HZ3 LYS A   4       3.799  33.922 -17.129  0.00  0.00    -0.089 HD
ENDBRANCH  12  13
ENDBRANCH  11  12
ENDBRANCH  10  11
ENDBRANCH   9  10
ENDBRANCH   6   9
ENDBRANCH   4   6
ENDBRANCH   1   2
BRANCH   1  18
ATOM     17  C   ASP A   2       4.654  34.016  -6.747  0.00  0.00    +0.241 C 
ATOM     18  N   TYR A   3       5.554  33.039  -6.797  0.00  0.00    -0.297 N 
ATOM     19  H   TYR A   3       5.323  32.118  -6.374  0.00  0.00    +0.150 HD
ATOM     20  O   ASP A   2       4.837  35.122  -7.261  0.00  0.00    -0.273 OA
BRANCH  17  21
ATOM     21  CA  ASP A   2       3.346  33.690  -6.030  0.00  0.00    +0.160 C 
BRANCH  21  24
ATOM     22  C   THR A   1       3.897  34.454  -3.789  0.00  0.00    +0.241 C 
ATOM     23  O   THR A   1       4.783  33.611  -3.672  0.00  0.00    -0.274 OA
ATOM     24  N   ASP A   2       3.149  34.569  -4.881  0.00  0.00    -0.297 N 
ATOM     25  H   ASP A   2       2.409  35.299  -4.918  0.00  0.00    +0.150 HD
BRANCH  22  26
ATOM     26  CA  THR A   1       3.599  35.421  -2.653  0.00  0.00    +0.172 C 
BRANCH  26  27
ATOM     27  N   THR A   1       3.103  36.713  -3.113  0.00  0.00    -0.236 NA
ATOM     28  H   THR A   1       2.102  36.802  -3.380  0.00  0.00    +0.142 HD
ENDBRANCH  26  27
BRANCH  26  29
ATOM     29  CB  THR A   1       2.591  34.744  -1.722  0.00  0.00    +0.135 C 
ATOM     30  CG2 THR A   1       2.308  35.627  -0.512  0.00  0.00    +0.034 C 
BRANCH  29  31
ATOM     31  OG1 THR A   1       1.375  34.498  -2.442  0.00  0.00    -0.383 OA
ATOM     32  HG1 THR A   1       0.721  34.060  -1.842  0.00  0.00    +0.210 HD
ENDBRANCH  29  31
ENDBRANCH  26  29
ENDBRANCH  22  26
ENDBRANCH  21  24
BRANCH  21  33
ATOM     33  CB  ASP A   2       2.164  33.823  -6.998  0.00  0.00    +0.143 C 
BRANCH  33  34
ATOM     34  CG  ASP A   2       2.329  32.968  -8.248  0.00  0.00    +0.367 C 
ATOM     35  OD2 ASP A   2       1.608  31.958  -8.374  0.00  0.00    -0.246 OA
ATOM     36  OD1 ASP A   2       3.178  33.296  -9.104  0.00  0.00    -0.246 OA
ENDBRANCH  33  34
ENDBRANCH  21  33
ENDBRANCH  17  21
ENDBRANCH   1  18
BRANCH   1  37
ATOM     37  CB  TYR A   3       7.634  31.912  -7.416  0.00  0.00    +0.055 C 
BRANCH  37  38
ATOM     38  CG  TYR A   3       9.023  32.048  -7.998  0.00  0.00    -0.020 A 
ATOM     39  CD2 TYR A   3      10.050  32.661  -7.274  0.00  0.00    -0.001 A 
ATOM     40  CE2 TYR A   3      11.318  32.823  -7.825  0.00  0.00    +0.036 A 
ATOM     41  CZ  TYR A   3      11.572  32.365  -9.107  0.00  0.00    +0.134 A 
ATOM     42  CE1 TYR A   3      10.566  31.759  -9.847  0.00  0.00    +0.036 A 
ATOM     43  CD1 TYR A   3       9.304  31.602  -9.289  0.00  0.00    -0.001 A 
BRANCH  41  44
ATOM     44  OH  TYR A   3      12.843  32.454  -9.623  0.00  0.00    -0.506 OA
ATOM     45  HH  TYR A   3      12.820  32.971 -10.467  0.00  0.00    +0.292 HD
ENDBRANCH  41  44
ENDBRANCH  37  38
ENDBRANCH   1  37
TORSDOF 20
REMARK  Name = ../refined-set-2016/2ews/2ews_pocket.pdb
REMARK  213 active torsions:
REMARK  status: ('A' for Active; 'I' for Inactive)
REMARK    1  A    between atoms: _1  and  _3
REMARK    2  A    between atoms: _3  and  _4
REMARK    3  A    between atoms: _3  and  _6
REMARK    4  A    between atoms: _6  and  _7
REMARK    5  A    between atoms: _10  and  _12
REMARK    6  A    between atoms: _12  and  _13
REMARK    7  A    between atoms: _16  and  _18
REMARK    8  A    between atoms: _18  and  _19
REMARK    9  A    between atoms: _21  and  _23
REMARK   10  A    between atoms: _23  and  _24
REMARK   11  A    between atoms: _26  and  _28
REMARK   12  A    between atoms: _28  and  _29
REMARK   13  A    between atoms: _28  and  _31
REMARK   14  A    between atoms: _31  and  _32
REMARK   15  A    between atoms: _35  and  _37
REMARK   16  A    between atoms: _37  and  _38
REMARK   17  A    between atoms: _37  and  _40
REMARK   18  A    between atoms: _40  and  _41
REMARK   19  A    between atoms: _44  and  _46
REMARK   20  A    between atoms: _46  and  _47
REMARK   21  A    between atoms: _46  and  _49
REMARK   22  A    between atoms: _49  and  _50
REMARK   23  A    between atoms: _53  and  _55
REMARK   24  A    between atoms: _55  and  _56
REMARK   25  A    between atoms: _55  and  _58
REMARK   26  A    between atoms: _58  and  _59
REMARK   27  A    between atoms: _59  and  _60
REMARK   28  A    between atoms: _60  and  _61
REMARK   29  A    between atoms: _61  and  _62
REMARK   30  A    between atoms: _66  and  _68
REMARK   31  A    between atoms: _68  and  _69
REMARK   32  A    between atoms: _68  and  _71
REMARK   33  A    between atoms: _71  and  _72
REMARK   34  A    between atoms: _75  and  _77
REMARK   35  A    between atoms: _77  and  _78
REMARK   36  A    between atoms: _77  and  _80
REMARK   37  A    between atoms: _80  and  _81
REMARK   38  A    between atoms: _81  and  _82
REMARK   39  A    between atoms: _85  and  _87
REMARK   40  A    between atoms: _87  and  _88
REMARK   41  A    between atoms: _87  and  _90
REMARK   42  A    between atoms: _90  and  _91
REMARK   43  A    between atoms: _94  and  _96
REMARK   44  A    between atoms: _96  and  _97
REMARK   45  A    between atoms: _96  and  _99
REMARK   46  A    between atoms: _99  and  _100
REMARK   47  A    between atoms: _103  and  _105
REMARK   48  A    between atoms: _105  and  _106
REMARK   49  A    between atoms: _105  and  _108
REMARK   50  A    between atoms: _108  and  _109
REMARK   51  A    between atoms: _109  and  _110
REMARK   52  A    between atoms: _110  and  _111
REMARK   53  A    between atoms: _111  and  _112
REMARK   54  A    between atoms: _116  and  _118
REMARK   55  A    between atoms: _118  and  _119
REMARK   56  A    between atoms: _118  and  _121
REMARK   57  A    between atoms: _121  and  _122
REMARK   58  A    between atoms: _125  and  _127
REMARK   59  A    between atoms: _127  and  _128
REMARK   60  A    between atoms: _130  and  _132
REMARK   61  A    between atoms: _132  and  _133
REMARK   62  A    between atoms: _135  and  _137
REMARK   63  A    between atoms: _137  and  _138
REMARK   64  A    between atoms: _137  and  _140
REMARK   65  A    between atoms: _140  and  _141
REMARK   66  A    between atoms: _146  and  _148
REMARK   67  A    between atoms: _148  and  _149
REMARK   68  A    between atoms: _148  and  _151
REMARK   69  A    between atoms: _151  and  _152
REMARK   70  A    between atoms: _152  and  _153
REMARK   71  A    between atoms: _156  and  _158
REMARK   72  A    between atoms: _158  and  _159
REMARK   73  A    between atoms: _158  and  _161
REMARK   74  A    between atoms: _161  and  _162
REMARK   75  A    between atoms: _168  and  _170
REMARK   76  A    between atoms: _170  and  _171
REMARK   77  A    between atoms: _170  and  _173
REMARK   78  A    between atoms: _173  and  _174
REMARK   79  A    between atoms: _179  and  _181
REMARK   80  A    between atoms: _181  and  _182
REMARK   81  A    between atoms: _181  and  _184
REMARK   82  A    between atoms: _187  and  _189
REMARK   83  A    between atoms: _189  and  _190
REMARK   84  A    between atoms: _192  and  _194
REMARK   85  A    between atoms: _194  and  _195
REMARK   86  A    between atoms: _194  and  _197
REMARK   87  A    between atoms: _197  and  _198
REMARK   88  A    between atoms: _201  and  _203
REMARK   89  A    between atoms: _203  and  _204
REMARK   90  A    between atoms: _206  and  _208
REMARK   91  A    between atoms: _208  and  _209
REMARK   92  A    between atoms: _208  and  _211
REMARK   93  A    between atoms: _211  and  _212
REMARK   94  A    between atoms: _215  and  _217
REMARK   95  A    between atoms: _217  and  _218
REMARK   96  A    between atoms: _217  and  _220
REMARK   97  A    between atoms: _220  and  _221
REMARK   98  A    between atoms: _223  and  _225
REMARK   99  A    between atoms: _225  and  _226
REMARK  100  A    between atoms: _228  and  _230
REMARK  101  A    between atoms: _230  and  _231
REMARK  102  A    between atoms: _233  and  _235
REMARK  103  A    between atoms: _235  and  _236
REMARK  104  A    between atoms: _238  and  _240
REMARK  105  A    between atoms: _240  and  _241
REMARK  106  A    between atoms: _240  and  _243
REMARK  107  A    between atoms: _243  and  _244
REMARK  108  A    between atoms: _244  and  _245
REMARK  109  A    between atoms: _247  and  _249
REMARK  110  A    between atoms: _249  and  _250
REMARK  111  A    between atoms: _249  and  _252
REMARK  112  A    between atoms: _252  and  _253
REMARK  113  A    between atoms: _256  and  _258
REMARK  114  A    between atoms: _258  and  _259
REMARK  115  A    between atoms: _258  and  _261
REMARK  116  A    between atoms: _261  and  _262
REMARK  117  A    between atoms: _262  and  _263
REMARK  118  A    between atoms: _268  and  _270
REMARK  119  A    between atoms: _270  and  _271
REMARK  120  A    between atoms: _273  and  _275
REMARK  121  A    between atoms: _275  and  _276
REMARK  122  A    between atoms: _275  and  _278
REMARK  123  A    between atoms: _278  and  _279
REMARK  124  A    between atoms: _282  and  _284
REMARK  125  A    between atoms: _284  and  _285
REMARK  126  A    between atoms: _284  and  _287
REMARK  127  A    between atoms: _287  and  _288
REMARK  128  A    between atoms: _291  and  _293
REMARK  129  A    between atoms: _293  and  _294
REMARK  130  A    between atoms: _293  and  _296
REMARK  131  A    between atoms: _296  and  _297
REMARK  132  A    between atoms: _302  and  _303
REMARK  133  A    between atoms: _305  and  _307
REMARK  134  A    between atoms: _307  and  _308
REMARK  135  A    between atoms: _307  and  _310
REMARK  136  A    between atoms: _310  and  _311
REMARK  137  A    between atoms: _311  and  _312
REMARK  138  A    between atoms: _312  and  _313
REMARK  139  A    between atoms: _313  and  _314
REMARK  140  A    between atoms: _318  and  _320
REMARK  141  A    between atoms: _320  and  _321
REMARK  142  A    between atoms: _320  and  _323
REMARK  143  A    between atoms: _323  and  _324
REMARK  144  A    between atoms: _327  and  _329
REMARK  145  A    between atoms: _329  and  _330
REMARK  146  A    between atoms: _329  and  _332
REMARK  147  A    between atoms: _332  and  _333
REMARK  148  A    between atoms: _336  and  _338
REMARK  149  A    between atoms: _338  and  _339
REMARK  150  A    between atoms: _338  and  _341
REMARK  151  A    between atoms: _341  and  _342
REMARK  152  A    between atoms: _345  and  _347
REMARK  153  A    between atoms: _347  and  _348
REMARK  154  A    between atoms: _350  and  _352
REMARK  155  A    between atoms: _352  and  _353
REMARK  156  A    between atoms: _352  and  _355
REMARK  157  A    between atoms: _355  and  _356
REMARK  158  A    between atoms: _358  and  _360
REMARK  159  A    between atoms: _360  and  _361
REMARK  160  A    between atoms: _360  and  _363
REMARK  161  A    between atoms: _363  and  _364
REMARK  162  A    between atoms: _366  and  _368
REMARK  163  A    between atoms: _368  and  _369
REMARK  164  A    between atoms: _368  and  _371
REMARK  165  A    between atoms: _371  and  _372
REMARK  166  A    between atoms: _378  and  _380
REMARK  167  A    between atoms: _380  and  _381
REMARK  168  A    between atoms: _380  and  _383
REMARK  169  A    between atoms: _383  and  _384
REMARK  170  A    between atoms: _389  and  _391
REMARK  171  A    between atoms: _391  and  _392
REMARK  172  A    between atoms: _391  and  _394
REMARK  173  A    between atoms: _394  and  _395
REMARK  174  A    between atoms: _400  and  _402
REMARK  175  A    between atoms: _402  and  _403
REMARK  176  A    between atoms: _402  and  _405
REMARK  177  A    between atoms: _405  and  _406
REMARK  178  A    between atoms: _411  and  _413
REMARK  179  A    between atoms: _413  and  _414
REMARK  180  A    between atoms: _413  and  _416
REMARK  181  A    between atoms: _416  and  _417
REMARK  182  A    between atoms: _420  and  _422
REMARK  183  A    between atoms: _422  and  _423
REMARK  184  A    between atoms: _425  and  _427
REMARK  185  A    between atoms: _427  and  _428
REMARK  186  A    between atoms: _431  and  _433
REMARK  187  A    between atoms: _433  and  _434
REMARK  188  A    between atoms: _433  and  _436
REMARK  189  A    between atoms: _436  and  _437
REMARK  190  A    between atoms: _443  and  _445
REMARK  191  A    between atoms: _445  and  _446
REMARK  192  A    between atoms: _445  and  _448
REMARK  193  A    between atoms: _448  and  _449
REMARK  194  A    between atoms: _451  and  _453
REMARK  195  A    between atoms: _453  and  _454
REMARK  196  A    between atoms: _456  and  _458
REMARK  197  A    between atoms: _458  and  _459
REMARK  198  A    between atoms: _458  and  _461
REMARK  199  A    between atoms: _461  and  _462
REMARK  200  A    between atoms: _465  and  _467
REMARK  201  A    between atoms: _467  and  _468
REMARK  202  A    between atoms: _467  and  _470
REMARK  203  A    between atoms: _470  and  _471
REMARK  204  A    between atoms: _474  and  _476
REMARK  205  A    between atoms: _476  and  _477
REMARK  206  A    between atoms: _480  and  _482
REMARK  207  A    between atoms: _482  and  _483
REMARK  208  A    between atoms: _486  and  _488
REMARK  209  A    between atoms: _488  and  _489
REMARK  210  A    between atoms: _491  and  _493
REMARK  211  A    between atoms: _493  and  _494
REMARK  212  A    between atoms: _493  and  _496
REMARK  213  A    between atoms: _496  and  _497
REMARK                            x       y       z     vdW  Elec       q    Type
REMARK                         _______ _______ _______ _____ _____    ______ ____
ROOT
ATOM      1  C   LEU A   1       7.763  38.494  -9.289  0.00  0.00    +0.238 C 
ATOM      2  O   LEU A   1       8.042  39.656  -9.581  0.00  0.00    -0.274 OA
ATOM      3  N   THR A   2       8.360  37.440  -9.841  0.00  0.00    -0.296 N 
ATOM      4  H   THR A   2       8.065  36.483  -9.559  0.00  0.00    +0.150 HD
ENDROOT
BRANCH   1   5
ATOM      5  CA  LEU A   1       6.690  38.189  -8.257  0.00  0.00    +0.145 C 
BRANCH   5   6
ATOM      6  N   LEU A   1       5.635  37.373  -8.844  0.00  0.00    -0.238 NA
ATOM      7  H   LEU A   1       5.415  36.453  -8.412  0.00  0.00    +0.142 HD
ENDBRANCH   5   6
BRANCH   5   8
ATOM      8  CB  LEU A   1       7.336  37.457  -7.073  0.00  0.00    +0.026 C 
BRANCH   8   9
ATOM      9  CG  LEU A   1       8.282  38.300  -6.212  0.00  0.00    +0.002 C 
ATOM     10  CD2 LEU A   1       7.440  39.194  -5.308  0.00  0.00    +0.000 C 
ATOM     11  CD1 LEU A   1       9.186  37.404  -5.371  0.00  0.00    +0.000 C 
ENDBRANCH   8   9
ENDBRANCH   5   8
ENDBRANCH   1   5
BRANCH   3  12
ATOM     12  CA  THR A   2       9.415  37.596 -10.830  0.00  0.00    +0.164 C 
BRANCH  12  13
ATOM     13  CB  THR A   2      10.081  36.232 -11.144  0.00  0.00    +0.136 C 
ATOM     14  CG2 THR A   2      10.977  35.802  -9.978  0.00  0.00    +0.034 C 
BRANCH  13  15
ATOM     15  OG1 THR A   2       9.072  35.239 -11.371  0.00  0.00    -0.382 OA
ATOM     16  HG1 THR A   2       8.510  35.150 -10.561  0.00  0.00    +0.210 HD
ENDBRANCH  13  15
ENDBRANCH  12  13
BRANCH  12  17
ATOM     17  C   THR A   2       8.979  38.286 -12.129  0.00  0.00    +0.229 C 
ATOM     18  O   THR A   2       9.694  39.154 -12.632  0.00  0.00    -0.286 OA
ENDBRANCH  12  17
ENDBRANCH   3  12
TORSDOF 8
REMARK  Name = ../refined-set-2016/2ews/2ews_pocket.pdb
REMARK  213 active torsions:
REMARK  status: ('A' for Active; 'I' for Inactive)
REMARK    1  A    between atoms: _1  and  _3
REMARK    2  A    between atoms: _3  and  _4
REMARK    3  A    between atoms: _3  and  _6
REMARK    4  A    between atoms: _6  and  _7
REMARK    5  A    between atoms: _10  and  _12
REMARK    6  A    between atoms: _12  and  _13
REMARK    7  A    between atoms: _16  and  _18
REMARK    8  A    between atoms: _18  and  _19
REMARK    9  A    between atoms: _21  and  _23
REMARK   10  A    between atoms: _23  and  _24
REMARK   11  A    between atoms: _26  and  _28
REMARK   12  A    between atoms: _28  and  _29
REMARK   13  A    between atoms: _28  and  _31
REMARK   14  A    between atoms: _31  and  _32
REMARK   15  A    between atoms: _35  and  _37
REMARK   16  A    between atoms: _37  and  _38
REMARK   17  A    between atoms: _37  and  _40
REMARK   18  A    between atoms: _40  and  _41
REMARK   19  A    between atoms: _44  and  _46
REMARK   20  A    between atoms: _46  and  _47
REMARK   21  A    between atoms: _46  and  _49
REMARK   22  A    between atoms: _49  and  _50
REMARK   23  A    between atoms: _53  and  _55
REMARK   24  A    between atoms: _55  and  _56
REMARK   25  A    between atoms: _55  and  _58
REMARK   26  A    between atoms: _58  and  _59
REMARK   27  A    between atoms: _59  and  _60
REMARK   28  A    between atoms: _60  and  _61
REMARK   29  A    between atoms: _61  and  _62
REMARK   30  A    between atoms: _66  and  _68
REMARK   31  A    between atoms: _68  and  _69
REMARK   32  A    between atoms: _68  and  _71
REMARK   33  A    between atoms: _71  and  _72
REMARK   34  A    between atoms: _75  and  _77
REMARK   35  A    between atoms: _77  and  _78
REMARK   36  A    between atoms: _77  and  _80
REMARK   37  A    between atoms: _80  and  _81
REMARK   38  A    between atoms: _81  and  _82
REMARK   39  A    between atoms: _85  and  _87
REMARK   40  A    between atoms: _87  and  _88
REMARK   41  A    between atoms: _87  and  _90
REMARK   42  A    between atoms: _90  and  _91
REMARK   43  A    between atoms: _94  and  _96
REMARK   44  A    between atoms: _96  and  _97
REMARK   45  A    between atoms: _96  and  _99
REMARK   46  A    between atoms: _99  and  _100
REMARK   47  A    between atoms: _103  and  _105
REMARK   48  A    between atoms: _105  and  _106
REMARK   49  A    between atoms: _105  and  _108
REMARK   50  A    between atoms: _108  and  _109
REMARK   51  A    between atoms: _109  and  _110
REMARK   52  A    between atoms: _110  and  _111
REMARK   53  A    between atoms: _111  and  _112
REMARK   54  A    between atoms: _116  and  _118
REMARK   55  A    between atoms: _118  and  _119
REMARK   56  A    between atoms: _118  and  _121
REMARK   57  A    between atoms: _121  and  _122
REMARK   58  A    between atoms: _125  and  _127
REMARK   59  A    between atoms: _127  and  _128
REMARK   60  A    between atoms: _130  and  _132
REMARK   61  A    between atoms: _132  and  _133
REMARK   62  A    between atoms: _135  and  _137
REMARK   63  A    between atoms: _137  and  _138
REMARK   64  A    between atoms: _137  and  _140
REMARK   65  A    between atoms: _140  and  _141
REMARK   66  A    between atoms: _146  and  _148
REMARK   67  A    between atoms: _148  and  _149
REMARK   68  A    between atoms: _148  and  _151
REMARK   69  A    between atoms: _151  and  _152
REMARK   70  A    between atoms: _152  and  _153
REMARK   71  A    between atoms: _156  and  _158
REMARK   72  A    between atoms: _158  and  _159
REMARK   73  A    between atoms: _158  and  _161
REMARK   74  A    between atoms: _161  and  _162
REMARK   75  A    between atoms: _168  and  _170
REMARK   76  A    between atoms: _170  and  _171
REMARK   77  A    between atoms: _170  and  _173
REMARK   78  A    between atoms: _173  and  _174
REMARK   79  A    between atoms: _179  and  _181
REMARK   80  A    between atoms: _181  and  _182
REMARK   81  A    between atoms: _181  and  _184
REMARK   82  A    between atoms: _187  and  _189
REMARK   83  A    between atoms: _189  and  _190
REMARK   84  A    between atoms: _192  and  _194
REMARK   85  A    between atoms: _194  and  _195
REMARK   86  A    between atoms: _194  and  _197
REMARK   87  A    between atoms: _197  and  _198
REMARK   88  A    between atoms: _201  and  _203
REMARK   89  A    between atoms: _203  and  _204
REMARK   90  A    between atoms: _206  and  _208
REMARK   91  A    between atoms: _208  and  _209
REMARK   92  A    between atoms: _208  and  _211
REMARK   93  A    between atoms: _211  and  _212
REMARK   94  A    between atoms: _215  and  _217
REMARK   95  A    between atoms: _217  and  _218
REMARK   96  A    between atoms: _217  and  _220
REMARK   97  A    between atoms: _220  and  _221
REMARK   98  A    between atoms: _223  and  _225
REMARK   99  A    between atoms: _225  and  _226
REMARK  100  A    between atoms: _228  and  _230
REMARK  101  A    between atoms: _230  and  _231
REMARK  102  A    between atoms: _233  and  _235
REMARK  103  A    between atoms: _235  and  _236
REMARK  104  A    between atoms: _238  and  _240
REMARK  105  A    between atoms: _240  and  _241
REMARK  106  A    between atoms: _240  and  _243
REMARK  107  A    between atoms: _243  and  _244
REMARK  108  A    between atoms: _244  and  _245
REMARK  109  A    between atoms: _247  and  _249
REMARK  110  A    between atoms: _249  and  _250
REMARK  111  A    between atoms: _249  and  _252
REMARK  112  A    between atoms: _252  and  _253
REMARK  113  A    between atoms: _256  and  _258
REMARK  114  A    between atoms: _258  and  _259
REMARK  115  A    between atoms: _258  and  _261
REMARK  116  A    between atoms: _261  and  _262
REMARK  117  A    between atoms: _262  and  _263
REMARK  118  A    between atoms: _268  and  _270
REMARK  119  A    between atoms: _270  and  _271
REMARK  120  A    between atoms: _273  and  _275
REMARK  121  A    between atoms: _275  and  _276
REMARK  122  A    between atoms: _275  and  _278
REMARK  123  A    between atoms: _278  and  _279
REMARK  124  A    between atoms: _282  and  _284
REMARK  125  A    between atoms: _284  and  _285
REMARK  126  A    between atoms: _284  and  _287
REMARK  127  A    between atoms: _287  and  _288
REMARK  128  A    between atoms: _291  and  _293
REMARK  129  A    between atoms: _293  and  _294
REMARK  130  A    between atoms: _293  and  _296
REMARK  131  A    between atoms: _296  and  _297
REMARK  132  A    between atoms: _302  and  _303
REMARK  133  A    between atoms: _305  and  _307
REMARK  134  A    between atoms: _307  and  _308
REMARK  135  A    between atoms: _307  and  _310
REMARK  136  A    between atoms: _310  and  _311
REMARK  137  A    between atoms: _311  and  _312
REMARK  138  A    between atoms: _312  and  _313
REMARK  139  A    between atoms: _313  and  _314
REMARK  140  A    between atoms: _318  and  _320
REMARK  141  A    between atoms: _320  and  _321
REMARK  142  A    between atoms: _320  and  _323
REMARK  143  A    between atoms: _323  and  _324
REMARK  144  A    between atoms: _327  and  _329
REMARK  145  A    between atoms: _329  and  _330
REMARK  146  A    between atoms: _329  and  _332
REMARK  147  A    between atoms: _332  and  _333
REMARK  148  A    between atoms: _336  and  _338
REMARK  149  A    between atoms: _338  and  _339
REMARK  150  A    between atoms: _338  and  _341
REMARK  151  A    between atoms: _341  and  _342
REMARK  152  A    between atoms: _345  and  _347
REMARK  153  A    between atoms: _347  and  _348
REMARK  154  A    between atoms: _350  and  _352
REMARK  155  A    between atoms: _352  and  _353
REMARK  156  A    between atoms: _352  and  _355
REMARK  157  A    between atoms: _355  and  _356
REMARK  158  A    between atoms: _358  and  _360
REMARK  159  A    between atoms: _360  and  _361
REMARK  160  A    between atoms: _360  and  _363
REMARK  161  A    between atoms: _363  and  _364
REMARK  162  A    between atoms: _366  and  _368
REMARK  163  A    between atoms: _368  and  _369
REMARK  164  A    between atoms: _368  and  _371
REMARK  165  A    between atoms: _371  and  _372
REMARK  166  A    between atoms: _378  and  _380
REMARK  167  A    between atoms: _380  and  _381
REMARK  168  A    between atoms: _380  and  _383
REMARK  169  A    between atoms: _383  and  _384
REMARK  170  A    between atoms: _389  and  _391
REMARK  171  A    between atoms: _391  and  _392
REMARK  172  A    between atoms: _391  and  _394
REMARK  173  A    between atoms: _394  and  _395
REMARK  174  A    between atoms: _400  and  _402
REMARK  175  A    between atoms: _402  and  _403
REMARK  176  A    between atoms: _402  and  _405
REMARK  177  A    between atoms: _405  and  _406
REMARK  178  A    between atoms: _411  and  _413
REMARK  179  A    between atoms: _413  and  _414
REMARK  180  A    between atoms: _413  and  _416
REMARK  181  A    between atoms: _416  and  _417
REMARK  182  A    between atoms: _420  and  _422
REMARK  183  A    between atoms: _422  and  _423
REMARK  184  A    between atoms: _425  and  _427
REMARK  185  A    between atoms: _427  and  _428
REMARK  186  A    between atoms: _431  and  _433
REMARK  187  A    between atoms: _433  and  _434
REMARK  188  A    between atoms: _433  and  _436
REMARK  189  A    between atoms: _436  and  _437
REMARK  190  A    between atoms: _443  and  _445
REMARK  191  A    between atoms: _445  and  _446
REMARK  192  A    between atoms: _445  and  _448
REMARK  193  A    between atoms: _448  and  _449
REMARK  194  A    between atoms: _451  and  _453
REMARK  195  A    between atoms: _453  and  _454
REMARK  196  A    between atoms: _456  and  _458
REMARK  197  A    between atoms: _458  and  _459
REMARK  198  A    between atoms: _458  and  _461
REMARK  199  A    between atoms: _461  and  _462
REMARK  200  A    between atoms: _465  and  _467
REMARK  201  A    between atoms: _467  and  _468
REMARK  202  A    between atoms: _467  and  _470
REMARK  203  A    between atoms: _470  and  _471
REMARK  204  A    between atoms: _474  and  _476
REMARK  205  A    between atoms: _476  and  _477
REMARK  206  A    between atoms: _480  and  _482
REMARK  207  A    between atoms: _482  and  _483
REMARK  208  A    between atoms: _486  and  _488
REMARK  209  A    between atoms: _488  and  _489
REMARK  210  A    between atoms: _491  and  _493
REMARK  211  A    between atoms: _493  and  _494
REMARK  212  A    between atoms: _493  and  _496
REMARK  213  A    between atoms: _496  and  _497
REMARK                            x       y       z     vdW  Elec       q    Type
REMARK                         _______ _______ _______ _____ _____    ______ ____
ROOT
ATOM      1  CA  PHE A   5      17.379  32.361 -12.133  0.00  0.00    +0.153 C 
ENDROOT
BRANCH   1   2
ATOM      2  C   PHE A   5      16.118  31.980 -12.911  0.00  0.00    +0.241 C 
ATOM      3  N   HIS A   6      15.372  31.004 -12.397  0.00  0.00    -0.297 N 
ATOM      4  H   HIS A   6      15.661  30.553 -11.506  0.00  0.00    +0.150 HD
ATOM      5  O   PHE A   5      15.816  32.575 -13.957  0.00  0.00    -0.273 OA
BRANCH   3   6
ATOM      6  CA  HIS A   6      14.152  30.557 -13.068  0.00  0.00    +0.155 C 
BRANCH   6   7
ATOM      7  C   HIS A   6      13.078  31.631 -13.165  0.00  0.00    +0.241 C 
ATOM      8  O   HIS A   6      12.652  32.195 -12.163  0.00  0.00    -0.273 OA
ATOM      9  N   ASN A   7      12.622  31.879 -14.390  0.00  0.00    -0.297 N 
ATOM     10  H   ASN A   7      13.003  31.326 -15.185  0.00  0.00    +0.150 HD
BRANCH   9  11
ATOM     11  CA  ASN A   7      11.609  32.895 -14.666  0.00  0.00    +0.158 C 
BRANCH  11  12
ATOM     12  C   ASN A   7      12.089  34.270 -14.192  0.00  0.00    +0.241 C 
ATOM     13  O   ASN A   7      11.295  35.131 -13.796  0.00  0.00    -0.273 OA
ATOM     14  N   ASN A   8      13.394  34.477 -14.237  0.00  0.00    -0.298 N 
ATOM     15  H   ASN A   8      14.029  33.728 -14.579  0.00  0.00    +0.150 HD
BRANCH  14  16
ATOM     16  CA  ASN A   8      13.938  35.754 -13.808  0.00  0.00    +0.146 C 
BRANCH  16  17
ATOM     17  C   ASN A   8      15.076  36.160 -14.723  0.00  0.00    +0.227 C 
ATOM     18  O   ASN A   8      16.248  35.947 -14.410  0.00  0.00    -0.286 OA
ENDBRANCH  16  17
BRANCH  16  19
ATOM     19  CB  ASN A   8      14.438  35.664 -12.365  0.00  0.00    +0.112 C 
BRANCH  19  20
ATOM     20  CG  ASN A   8      14.648  37.024 -11.746  0.00  0.00    +0.222 C 
ATOM     21  ND2 ASN A   8      14.411  37.135 -10.441  0.00  0.00    -0.329 N 
ATOM     22 HD21 ASN A   8      14.087  36.309  -9.899  0.00  0.00    +0.145 HD
ATOM     23 HD22 ASN A   8      14.550  38.048  -9.963  0.00  0.00    +0.145 HD
ATOM     24  OD1 ASN A   8      15.032  37.967 -12.434  0.00  0.00    -0.275 OA
ENDBRANCH  19  20
ENDBRANCH  16  19
ENDBRANCH  14  16
ENDBRANCH  11  12
BRANCH  11  25
ATOM     25  CB  ASN A   7      10.277  32.556 -13.988  0.00  0.00    +0.114 C 
BRANCH  25  26
ATOM     26  CG  ASN A   7       9.104  33.340 -14.584  0.00  0.00    +0.222 C 
ATOM     27  ND2 ASN A   7       8.462  34.182 -13.771  0.00  0.00    -0.329 N 
ATOM     28 HD21 ASN A   7       8.761  34.277 -12.779  0.00  0.00    +0.145 HD
ATOM     29 HD22 ASN A   7       7.663  34.743 -14.129  0.00  0.00    +0.145 HD
ATOM     30  OD1 ASN A   7       8.789  33.192 -15.764  0.00  0.00    -0.275 OA
ENDBRANCH  25  26
ENDBRANCH  11  25
ENDBRANCH   9  11
ENDBRANCH   6   7
BRANCH   6  31
ATOM     31  CB  HIS A   6      13.571  29.319 -12.379  0.00  0.00    +0.076 C 
BRANCH  31  32
ATOM     32  CG  HIS A   6      14.327  28.059 -12.662  0.00  0.00    +0.082 A 
ATOM     33  ND1 HIS A   6      13.919  26.827 -12.197  0.00  0.00    -0.227 NA
ATOM     34  CE1 HIS A   6      14.765  25.899 -12.611  0.00  0.00    +0.199 A 
ATOM     35  NE2 HIS A   6      15.708  26.486 -13.327  0.00  0.00    -0.221 NA
ATOM     36  CD2 HIS A   6      15.458  27.836 -13.373  0.00  0.00    +0.115 A 
ENDBRANCH  31  32
ENDBRANCH   6  31
ENDBRANCH   3   6
ENDBRANCH   1   2
BRANCH   1  39
ATOM     37  C   SER A   4      16.740  32.315  -9.800  0.00  0.00    +0.243 C 
ATOM     38  O   SER A   4      16.076  33.340  -9.934  0.00  0.00    -0.273 OA
ATOM     39  N   PHE A   5      17.414  31.769 -10.801  0.00  0.00    -0.297 N 
ATOM     40  H   PHE A   5      17.974  30.909 -10.635  0.00  0.00    +0.150 HD
BRANCH  37  41
ATOM     41  CA  SER A   4      16.819  31.613  -8.447  0.00  0.00    +0.178 C 
BRANCH  41  43
ATOM     42  C   SER A   3      16.439  29.377  -9.316  0.00  0.00    +0.243 C 
ATOM     43  N   SER A   4      17.170  30.197  -8.565  0.00  0.00    -0.295 N 
ATOM     44  H   SER A   4      17.999  29.828  -8.057  0.00  0.00    +0.150 HD
ATOM     45  O   SER A   3      15.458  29.766  -9.959  0.00  0.00    -0.273 OA
BRANCH  42  46
ATOM     46  CA  SER A   3      16.857  27.904  -9.362  0.00  0.00    +0.178 C 
BRANCH  46  48
ATOM     47  C   GLY A   2      19.272  27.976  -9.517  0.00  0.00    +0.243 C 
ATOM     48  N   SER A   3      18.187  27.624  -8.844  0.00  0.00    -0.295 N 
ATOM     49  H   SER A   3      18.288  27.139  -7.929  0.00  0.00    +0.150 HD
ATOM     50  O   GLY A   2      19.217  28.579 -10.578  0.00  0.00    -0.273 OA
BRANCH  47  51
ATOM     51  CA  GLY A   2      20.607  27.612  -8.906  0.00  0.00    +0.176 C 
BRANCH  51  54
ATOM     52  C   ILE A   1      22.588  28.273 -10.124  0.00  0.00    +0.238 C 
ATOM     53  O   ILE A   1      22.745  29.285  -9.423  0.00  0.00    -0.274 OA
ATOM     54  N   GLY A   2      21.592  27.408  -9.949  0.00  0.00    -0.296 N 
ATOM     55  H   GLY A   2      21.520  26.576 -10.568  0.00  0.00    +0.150 HD
BRANCH  52  56
ATOM     56  CA  ILE A   1      23.547  27.959 -11.261  0.00  0.00    +0.145 C 
BRANCH  56  57
ATOM     57  N   ILE A   1      24.632  28.936 -11.277  0.00  0.00    -0.238 NA
ATOM     58  H   ILE A   1      25.091  29.197 -10.381  0.00  0.00    +0.142 HD
ENDBRANCH  56  57
BRANCH  56  59
ATOM     59  CB  ILE A   1      24.043  26.491 -11.120  0.00  0.00    +0.025 C 
ATOM     60  CG2 ILE A   1      24.928  26.144 -12.301  0.00  0.00    +0.002 C 
BRANCH  59  61
ATOM     61  CG1 ILE A   1      24.780  26.284  -9.796  0.00  0.00    +0.002 C 
ATOM     62  CD1 ILE A   1      25.149  24.826  -9.532  0.00  0.00    +0.000 C 
ENDBRANCH  59  61
ENDBRANCH  56  59
ENDBRANCH  52  56
ENDBRANCH  51  54
ENDBRANCH  47  51
ENDBRANCH  46  48
BRANCH  46  63
ATOM     63  CB  SER A   3      15.835  27.060  -8.603  0.00  0.00    +0.166 C 
BRANCH  63  64
ATOM     64  OG  SER A   3      16.225  25.694  -8.571  0.00  0.00    -0.380 OA
ATOM     65  H   SER A   3      15.547  25.170  -8.075  0.00  0.00    +0.211 HD
ENDBRANCH  63  64
ENDBRANCH  46  63
ENDBRANCH  42  46
ENDBRANCH  41  43
BRANCH  41  66
ATOM     66  CB  SER A   4      17.816  32.349  -7.539  0.00  0.00    +0.166 C 
BRANCH  66  67
ATOM     67  OG  SER A   4      17.815  31.791  -6.234  0.00  0.00    -0.380 OA
ATOM     68  H   SER A   4      18.073  30.836  -6.284  0.00  0.00    +0.211 HD
ENDBRANCH  66  67
ENDBRANCH  41  66
ENDBRANCH  37  41
ENDBRANCH   1  39
BRANCH   1  69
ATOM     69  CB  PHE A   5      18.614  31.950 -12.929  0.00  0.00    +0.055 C 
BRANCH  69  70
ATOM     70  CG  PHE A   5      19.911  32.415 -12.323  0.00  0.00    -0.020 A 
ATOM     71  CD2 PHE A   5      20.713  31.539 -11.599  0.00  0.00    -0.004 A 
ATOM     72  CE2 PHE A   5      21.934  31.971 -11.041  0.00  0.00    -0.000 A 
ATOM     73  CZ  PHE A   5      22.352  33.303 -11.213  0.00  0.00    -0.000 A 
ATOM     74  CE1 PHE A   5      21.551  34.180 -11.935  0.00  0.00    -0.000 A 
ATOM     75  CD1 PHE A   5      20.335  33.732 -12.486  0.00  0.00    -0.004 A 
ENDBRANCH  69  70
ENDBRANCH   1  69
TORSDOF 30
REMARK  Name = ../refined-set-2016/2ews/2ews_pocket.pdb
REMARK  213 active torsions:
REMARK  status: ('A' for Active; 'I' for Inactive)
REMARK    1  A    between atoms: _1  and  _3
REMARK    2  A    between atoms: _3  and  _4
REMARK    3  A    between atoms: _3  and  _6
REMARK    4  A    between atoms: _6  and  _7
REMARK    5  A    between atoms: _10  and  _12
REMARK    6  A    between atoms: _12  and  _13
REMARK    7  A    between atoms: _16  and  _18
REMARK    8  A    between atoms: _18  and  _19
REMARK    9  A    between atoms: _21  and  _23
REMARK   10  A    between atoms: _23  and  _24
REMARK   11  A    between atoms: _26  and  _28
REMARK   12  A    between atoms: _28  and  _29
REMARK   13  A    between atoms: _28  and  _31
REMARK   14  A    between atoms: _31  and  _32
REMARK   15  A    between atoms: _35  and  _37
REMARK   16  A    between atoms: _37  and  _38
REMARK   17  A    between atoms: _37  and  _40
REMARK   18  A    between atoms: _40  and  _41
REMARK   19  A    between atoms: _44  and  _46
REMARK   20  A    between atoms: _46  and  _47
REMARK   21  A    between atoms: _46  and  _49
REMARK   22  A    between atoms: _49  and  _50
REMARK   23  A    between atoms: _53  and  _55
REMARK   24  A    between atoms: _55  and  _56
REMARK   25  A    between atoms: _55  and  _58
REMARK   26  A    between atoms: _58  and  _59
REMARK   27  A    between atoms: _59  and  _60
REMARK   28  A    between atoms: _60  and  _61
REMARK   29  A    between atoms: _61  and  _62
REMARK   30  A    between atoms: _66  and  _68
REMARK   31  A    between atoms: _68  and  _69
REMARK   32  A    between atoms: _68  and  _71
REMARK   33  A    between atoms: _71  and  _72
REMARK   34  A    between atoms: _75  and  _77
REMARK   35  A    between atoms: _77  and  _78
REMARK   36  A    between atoms: _77  and  _80
REMARK   37  A    between atoms: _80  and  _81
REMARK   38  A    between atoms: _81  and  _82
REMARK   39  A    between atoms: _85  and  _87
REMARK   40  A    between atoms: _87  and  _88
REMARK   41  A    between atoms: _87  and  _90
REMARK   42  A    between atoms: _90  and  _91
REMARK   43  A    between atoms: _94  and  _96
REMARK   44  A    between atoms: _96  and  _97
REMARK   45  A    between atoms: _96  and  _99
REMARK   46  A    between atoms: _99  and  _100
REMARK   47  A    between atoms: _103  and  _105
REMARK   48  A    between atoms: _105  and  _106
REMARK   49  A    between atoms: _105  and  _108
REMARK   50  A    between atoms: _108  and  _109
REMARK   51  A    between atoms: _109  and  _110
REMARK   52  A    between atoms: _110  and  _111
REMARK   53  A    between atoms: _111  and  _112
REMARK   54  A    between atoms: _116  and  _118
REMARK   55  A    between atoms: _118  and  _119
REMARK   56  A    between atoms: _118  and  _121
REMARK   57  A    between atoms: _121  and  _122
REMARK   58  A    between atoms: _125  and  _127
REMARK   59  A    between atoms: _127  and  _128
REMARK   60  A    between atoms: _130  and  _132
REMARK   61  A    between atoms: _132  and  _133
REMARK   62  A    between atoms: _135  and  _137
REMARK   63  A    between atoms: _137  and  _138
REMARK   64  A    between atoms: _137  and  _140
REMARK   65  A    between atoms: _140  and  _141
REMARK   66  A    between atoms: _146  and  _148
REMARK   67  A    between atoms: _148  and  _149
REMARK   68  A    between atoms: _148  and  _151
REMARK   69  A    between atoms: _151  and  _152
REMARK   70  A    between atoms: _152  and  _153
REMARK   71  A    between atoms: _156  and  _158
REMARK   72  A    between atoms: _158  and  _159
REMARK   73  A    between atoms: _158  and  _161
REMARK   74  A    between atoms: _161  and  _162
REMARK   75  A    between atoms: _168  and  _170
REMARK   76  A    between atoms: _170  and  _171
REMARK   77  A    between atoms: _170  and  _173
REMARK   78  A    between atoms: _173  and  _174
REMARK   79  A    between atoms: _179  and  _181
REMARK   80  A    between atoms: _181  and  _182
REMARK   81  A    between atoms: _181  and  _184
REMARK   82  A    between atoms: _187  and  _189
REMARK   83  A    between atoms: _189  and  _190
REMARK   84  A    between atoms: _192  and  _194
REMARK   85  A    between atoms: _194  and  _195
REMARK   86  A    between atoms: _194  and  _197
REMARK   87  A    between atoms: _197  and  _198
REMARK   88  A    between atoms: _201  and  _203
REMARK   89  A    between atoms: _203  and  _204
REMARK   90  A    between atoms: _206  and  _208
REMARK   91  A    between atoms: _208  and  _209
REMARK   92  A    between atoms: _208  and  _211
REMARK   93  A    between atoms: _211  and  _212
REMARK   94  A    between atoms: _215  and  _217
REMARK   95  A    between atoms: _217  and  _218
REMARK   96  A    between atoms: _217  and  _220
REMARK   97  A    between atoms: _220  and  _221
REMARK   98  A    between atoms: _223  and  _225
REMARK   99  A    between atoms: _225  and  _226
REMARK  100  A    between atoms: _228  and  _230
REMARK  101  A    between atoms: _230  and  _231
REMARK  102  A    between atoms: _233  and  _235
REMARK  103  A    between atoms: _235  and  _236
REMARK  104  A    between atoms: _238  and  _240
REMARK  105  A    between atoms: _240  and  _241
REMARK  106  A    between atoms: _240  and  _243
REMARK  107  A    between atoms: _243  and  _244
REMARK  108  A    between atoms: _244  and  _245
REMARK  109  A    between atoms: _247  and  _249
REMARK  110  A    between atoms: _249  and  _250
REMARK  111  A    between atoms: _249  and  _252
REMARK  112  A    between atoms: _252  and  _253
REMARK  113  A    between atoms: _256  and  _258
REMARK  114  A    between atoms: _258  and  _259
REMARK  115  A    between atoms: _258  and  _261
REMARK  116  A    between atoms: _261  and  _262
REMARK  117  A    between atoms: _262  and  _263
REMARK  118  A    between atoms: _268  and  _270
REMARK  119  A    between atoms: _270  and  _271
REMARK  120  A    between atoms: _273  and  _275
REMARK  121  A    between atoms: _275  and  _276
REMARK  122  A    between atoms: _275  and  _278
REMARK  123  A    between atoms: _278  and  _279
REMARK  124  A    between atoms: _282  and  _284
REMARK  125  A    between atoms: _284  and  _285
REMARK  126  A    between atoms: _284  and  _287
REMARK  127  A    between atoms: _287  and  _288
REMARK  128  A    between atoms: _291  and  _293
REMARK  129  A    between atoms: _293  and  _294
REMARK  130  A    between atoms: _293  and  _296
REMARK  131  A    between atoms: _296  and  _297
REMARK  132  A    between atoms: _302  and  _303
REMARK  133  A    between atoms: _305  and  _307
REMARK  134  A    between atoms: _307  and  _308
REMARK  135  A    between atoms: _307  and  _310
REMARK  136  A    between atoms: _310  and  _311
REMARK  137  A    between atoms: _311  and  _312
REMARK  138  A    between atoms: _312  and  _313
REMARK  139  A    between atoms: _313  and  _314
REMARK  140  A    between atoms: _318  and  _320
REMARK  141  A    between atoms: _320  and  _321
REMARK  142  A    between atoms: _320  and  _323
REMARK  143  A    between atoms: _323  and  _324
REMARK  144  A    between atoms: _327  and  _329
REMARK  145  A    between atoms: _329  and  _330
REMARK  146  A    between atoms: _329  and  _332
REMARK  147  A    between atoms: _332  and  _333
REMARK  148  A    between atoms: _336  and  _338
REMARK  149  A    between atoms: _338  and  _339
REMARK  150  A    between atoms: _338  and  _341
REMARK  151  A    between atoms: _341  and  _342
REMARK  152  A    between atoms: _345  and  _347
REMARK  153  A    between atoms: _347  and  _348
REMARK  154  A    between atoms: _350  and  _352
REMARK  155  A    between atoms: _352  and  _353
REMARK  156  A    between atoms: _352  and  _355
REMARK  157  A    between atoms: _355  and  _356
REMARK  158  A    between atoms: _358  and  _360
REMARK  159  A    between atoms: _360  and  _361
REMARK  160  A    between atoms: _360  and  _363
REMARK  161  A    between atoms: _363  and  _364
REMARK  162  A    between atoms: _366  and  _368
REMARK  163  A    between atoms: _368  and  _369
REMARK  164  A    between atoms: _368  and  _371
REMARK  165  A    between atoms: _371  and  _372
REMARK  166  A    between atoms: _378  and  _380
REMARK  167  A    between atoms: _380  and  _381
REMARK  168  A    between atoms: _380  and  _383
REMARK  169  A    between atoms: _383  and  _384
REMARK  170  A    between atoms: _389  and  _391
REMARK  171  A    between atoms: _391  and  _392
REMARK  172  A    between atoms: _391  and  _394
REMARK  173  A    between atoms: _394  and  _395
REMARK  174  A    between atoms: _400  and  _402
REMARK  175  A    between atoms: _402  and  _403
REMARK  176  A    between atoms: _402  and  _405
REMARK  177  A    between atoms: _405  and  _406
REMARK  178  A    between atoms: _411  and  _413
REMARK  179  A    between atoms: _413  and  _414
REMARK  180  A    between atoms: _413  and  _416
REMARK  181  A    between atoms: _416  and  _417
REMARK  182  A    between atoms: _420  and  _422
REMARK  183  A    between atoms: _422  and  _423
REMARK  184  A    between atoms: _425  and  _427
REMARK  185  A    between atoms: _427  and  _428
REMARK  186  A    between atoms: _431  and  _433
REMARK  187  A    between atoms: _433  and  _434
REMARK  188  A    between atoms: _433  and  _436
REMARK  189  A    between atoms: _436  and  _437
REMARK  190  A    between atoms: _443  and  _445
REMARK  191  A    between atoms: _445  and  _446
REMARK  192  A    between atoms: _445  and  _448
REMARK  193  A    between atoms: _448  and  _449
REMARK  194  A    between atoms: _451  and  _453
REMARK  195  A    between atoms: _453  and  _454
REMARK  196  A    between atoms: _456  and  _458
REMARK  197  A    between atoms: _458  and  _459
REMARK  198  A    between atoms: _458  and  _461
REMARK  199  A    between atoms: _461  and  _462
REMARK  200  A    between atoms: _465  and  _467
REMARK  201  A    between atoms: _467  and  _468
REMARK  202  A    between atoms: _467  and  _470
REMARK  203  A    between atoms: _470  and  _471
REMARK  204  A    between atoms: _474  and  _476
REMARK  205  A    between atoms: _476  and  _477
REMARK  206  A    between atoms: _480  and  _482
REMARK  207  A    between atoms: _482  and  _483
REMARK  208  A    between atoms: _486  and  _488
REMARK  209  A    between atoms: _488  and  _489
REMARK  210  A    between atoms: _491  and  _493
REMARK  211  A    between atoms: _493  and  _494
REMARK  212  A    between atoms: _493  and  _496
REMARK  213  A    between atoms: _496  and  _497
REMARK                            x       y       z     vdW  Elec       q    Type
REMARK                         _______ _______ _______ _____ _____    ______ ____
ROOT
ATOM      1  CA  LEU A   1      18.658  38.366 -12.201  0.00  0.00    +0.133 C 
ENDROOT
BRANCH   1   2
ATOM      2  N   LEU A   1      17.585  38.849 -13.077  0.00  0.00    -0.239 NA
ATOM      3  H   LEU A   1      16.630  38.445 -12.998  0.00  0.00    +0.142 HD
ENDBRANCH   1   2
BRANCH   1   4
ATOM      4  C   LEU A   1      19.861  37.914 -13.004  0.00  0.00    +0.224 C 
ATOM      5  O   LEU A   1      20.993  38.232 -12.663  0.00  0.00    -0.287 OA
ENDBRANCH   1   4
BRANCH   1   6
ATOM      6  CB  LEU A   1      18.191  37.199 -11.311  0.00  0.00    +0.025 C 
BRANCH   6   7
ATOM      7  CG  LEU A   1      19.287  36.698 -10.349  0.00  0.00    +0.002 C 
ATOM      8  CD2 LEU A   1      19.651  37.817  -9.341  0.00  0.00    +0.000 C 
ATOM      9  CD1 LEU A   1      18.803  35.445  -9.599  0.00  0.00    +0.000 C 
ENDBRANCH   6   7
ENDBRANCH   1   6
TORSDOF 4
REMARK  Name = ../refined-set-2016/2ews/2ews_pocket.pdb
REMARK  213 active torsions:
REMARK  status: ('A' for Active; 'I' for Inactive)
REMARK    1  A    between atoms: _1  and  _3
REMARK    2  A    between atoms: _3  and  _4
REMARK    3  A    between atoms: _3  and  _6
REMARK    4  A    between atoms: _6  and  _7
REMARK    5  A    between atoms: _10  and  _12
REMARK    6  A    between atoms: _12  and  _13
REMARK    7  A    between atoms: _16  and  _18
REMARK    8  A    between atoms: _18  and  _19
REMARK    9  A    between atoms: _21  and  _23
REMARK   10  A    between atoms: _23  and  _24
REMARK   11  A    between atoms: _26  and  _28
REMARK   12  A    between atoms: _28  and  _29
REMARK   13  A    between atoms: _28  and  _31
REMARK   14  A    between atoms: _31  and  _32
REMARK   15  A    between atoms: _35  and  _37
REMARK   16  A    between atoms: _37  and  _38
REMARK   17  A    between atoms: _37  and  _40
REMARK   18  A    between atoms: _40  and  _41
REMARK   19  A    between atoms: _44  and  _46
REMARK   20  A    between atoms: _46  and  _47
REMARK   21  A    between atoms: _46  and  _49
REMARK   22  A    between atoms: _49  and  _50
REMARK   23  A    between atoms: _53  and  _55
REMARK   24  A    between atoms: _55  and  _56
REMARK   25  A    between atoms: _55  and  _58
REMARK   26  A    between atoms: _58  and  _59
REMARK   27  A    between atoms: _59  and  _60
REMARK   28  A    between atoms: _60  and  _61
REMARK   29  A    between atoms: _61  and  _62
REMARK   30  A    between atoms: _66  and  _68
REMARK   31  A    between atoms: _68  and  _69
REMARK   32  A    between atoms: _68  and  _71
REMARK   33  A    between atoms: _71  and  _72
REMARK   34  A    between atoms: _75  and  _77
REMARK   35  A    between atoms: _77  and  _78
REMARK   36  A    between atoms: _77  and  _80
REMARK   37  A    between atoms: _80  and  _81
REMARK   38  A    between atoms: _81  and  _82
REMARK   39  A    between atoms: _85  and  _87
REMARK   40  A    between atoms: _87  and  _88
REMARK   41  A    between atoms: _87  and  _90
REMARK   42  A    between atoms: _90  and  _91
REMARK   43  A    between atoms: _94  and  _96
REMARK   44  A    between atoms: _96  and  _97
REMARK   45  A    between atoms: _96  and  _99
REMARK   46  A    between atoms: _99  and  _100
REMARK   47  A    between atoms: _103  and  _105
REMARK   48  A    between atoms: _105  and  _106
REMARK   49  A    between atoms: _105  and  _108
REMARK   50  A    between atoms: _108  and  _109
REMARK   51  A    between atoms: _109  and  _110
REMARK   52  A    between atoms: _110  and  _111
REMARK   53  A    between atoms: _111  and  _112
REMARK   54  A    between atoms: _116  and  _118
REMARK   55  A    between atoms: _118  and  _119
REMARK   56  A    between atoms: _118  and  _121
REMARK   57  A    between atoms: _121  and  _122
REMARK   58  A    between atoms: _125  and  _127
REMARK   59  A    between atoms: _127  and  _128
REMARK   60  A    between atoms: _130  and  _132
REMARK   61  A    between atoms: _132  and  _133
REMARK   62  A    between atoms: _135  and  _137
REMARK   63  A    between atoms: _137  and  _138
REMARK   64  A    between atoms: _137  and  _140
REMARK   65  A    between atoms: _140  and  _141
REMARK   66  A    between atoms: _146  and  _148
REMARK   67  A    between atoms: _148  and  _149
REMARK   68  A    between atoms: _148  and  _151
REMARK   69  A    between atoms: _151  and  _152
REMARK   70  A    between atoms: _152  and  _153
REMARK   71  A    between atoms: _156  and  _158
REMARK   72  A    between atoms: _158  and  _159
REMARK   73  A    between atoms: _158  and  _161
REMARK   74  A    between atoms: _161  and  _162
REMARK   75  A    between atoms: _168  and  _170
REMARK   76  A    between atoms: _170  and  _171
REMARK   77  A    between atoms: _170  and  _173
REMARK   78  A    between atoms: _173  and  _174
REMARK   79  A    between atoms: _179  and  _181
REMARK   80  A    between atoms: _181  and  _182
REMARK   81  A    between atoms: _181  and  _184
REMARK   82  A    between atoms: _187  and  _189
REMARK   83  A    between atoms: _189  and  _190
REMARK   84  A    between atoms: _192  and  _194
REMARK   85  A    between atoms: _194  and  _195
REMARK   86  A    between atoms: _194  and  _197
REMARK   87  A    between atoms: _197  and  _198
REMARK   88  A    between atoms: _201  and  _203
REMARK   89  A    between atoms: _203  and  _204
REMARK   90  A    between atoms: _206  and  _208
REMARK   91  A    between atoms: _208  and  _209
REMARK   92  A    between atoms: _208  and  _211
REMARK   93  A    between atoms: _211  and  _212
REMARK   94  A    between atoms: _215  and  _217
REMARK   95  A    between atoms: _217  and  _218
REMARK   96  A    between atoms: _217  and  _220
REMARK   97  A    between atoms: _220  and  _221
REMARK   98  A    between atoms: _223  and  _225
REMARK   99  A    between atoms: _225  and  _226
REMARK  100  A    between atoms: _228  and  _230
REMARK  101  A    between atoms: _230  and  _231
REMARK  102  A    between atoms: _233  and  _235
REMARK  103  A    between atoms: _235  and  _236
REMARK  104  A    between atoms: _238  and  _240
REMARK  105  A    between atoms: _240  and  _241
REMARK  106  A    between atoms: _240  and  _243
REMARK  107  A    between atoms: _243  and  _244
REMARK  108  A    between atoms: _244  and  _245
REMARK  109  A    between atoms: _247  and  _249
REMARK  110  A    between atoms: _249  and  _250
REMARK  111  A    between atoms: _249  and  _252
REMARK  112  A    between atoms: _252  and  _253
REMARK  113  A    between atoms: _256  and  _258
REMARK  114  A    between atoms: _258  and  _259
REMARK  115  A    between atoms: _258  and  _261
REMARK  116  A    between atoms: _261  and  _262
REMARK  117  A    between atoms: _262  and  _263
REMARK  118  A    between atoms: _268  and  _270
REMARK  119  A    between atoms: _270  and  _271
REMARK  120  A    between atoms: _273  and  _275
REMARK  121  A    between atoms: _275  and  _276
REMARK  122  A    between atoms: _275  and  _278
REMARK  123  A    between atoms: _278  and  _279
REMARK  124  A    between atoms: _282  and  _284
REMARK  125  A    between atoms: _284  and  _285
REMARK  126  A    between atoms: _284  and  _287
REMARK  127  A    between atoms: _287  and  _288
REMARK  128  A    between atoms: _291  and  _293
REMARK  129  A    between atoms: _293  and  _294
REMARK  130  A    between atoms: _293  and  _296
REMARK  131  A    between atoms: _296  and  _297
REMARK  132  A    between atoms: _302  and  _303
REMARK  133  A    between atoms: _305  and  _307
REMARK  134  A    between atoms: _307  and  _308
REMARK  135  A    between atoms: _307  and  _310
REMARK  136  A    between atoms: _310  and  _311
REMARK  137  A    between atoms: _311  and  _312
REMARK  138  A    between atoms: _312  and  _313
REMARK  139  A    between atoms: _313  and  _314
REMARK  140  A    between atoms: _318  and  _320
REMARK  141  A    between atoms: _320  and  _321
REMARK  142  A    between atoms: _320  and  _323
REMARK  143  A    between atoms: _323  and  _324
REMARK  144  A    between atoms: _327  and  _329
REMARK  145  A    between atoms: _329  and  _330
REMARK  146  A    between atoms: _329  and  _332
REMARK  147  A    between atoms: _332  and  _333
REMARK  148  A    between atoms: _336  and  _338
REMARK  149  A    between atoms: _338  and  _339
REMARK  150  A    between atoms: _338  and  _341
REMARK  151  A    between atoms: _341  and  _342
REMARK  152  A    between atoms: _345  and  _347
REMARK  153  A    between atoms: _347  and  _348
REMARK  154  A    between atoms: _350  and  _352
REMARK  155  A    between atoms: _352  and  _353
REMARK  156  A    between atoms: _352  and  _355
REMARK  157  A    between atoms: _355  and  _356
REMARK  158  A    between atoms: _358  and  _360
REMARK  159  A    between atoms: _360  and  _361
REMARK  160  A    between atoms: _360  and  _363
REMARK  161  A    between atoms: _363  and  _364
REMARK  162  A    between atoms: _366  and  _368
REMARK  163  A    between atoms: _368  and  _369
REMARK  164  A    between atoms: _368  and  _371
REMARK  165  A    between atoms: _371  and  _372
REMARK  166  A    between atoms: _378  and  _380
REMARK  167  A    between atoms: _380  and  _381
REMARK  168  A    between atoms: _380  and  _383
REMARK  169  A    between atoms: _383  and  _384
REMARK  170  A    between atoms: _389  and  _391
REMARK  171  A    between atoms: _391  and  _392
REMARK  172  A    between atoms: _391  and  _394
REMARK  173  A    between atoms: _394  and  _395
REMARK  174  A    between atoms: _400  and  _402
REMARK  175  A    between atoms: _402  and  _403
REMARK  176  A    between atoms: _402  and  _405
REMARK  177  A    between atoms: _405  and  _406
REMARK  178  A    between atoms: _411  and  _413
REMARK  179  A    between atoms: _413  and  _414
REMARK  180  A    between atoms: _413  and  _416
REMARK  181  A    between atoms: _416  and  _417
REMARK  182  A    between atoms: _420  and  _422
REMARK  183  A    between atoms: _422  and  _423
REMARK  184  A    between atoms: _425  and  _427
REMARK  185  A    between atoms: _427  and  _428
REMARK  186  A    between atoms: _431  and  _433
REMARK  187  A    between atoms: _433  and  _434
REMARK  188  A    between atoms: _433  and  _436
REMARK  189  A    between atoms: _436  and  _437
REMARK  190  A    between atoms: _443  and  _445
REMARK  191  A    between atoms: _445  and  _446
REMARK  192  A    between atoms: _445  and  _448
REMARK  193  A    between atoms: _448  and  _449
REMARK  194  A    between atoms: _451  and  _453
REMARK  195  A    between atoms: _453  and  _454
REMARK  196  A    between atoms: _456  and  _458
REMARK  197  A    between atoms: _458  and  _459
REMARK  198  A    between atoms: _458  and  _461
REMARK  199  A    between atoms: _461  and  _462
REMARK  200  A    between atoms: _465  and  _467
REMARK  201  A    between atoms: _467  and  _468
REMARK  202  A    between atoms: _467  and  _470
REMARK  203  A    between atoms: _470  and  _471
REMARK  204  A    between atoms: _474  and  _476
REMARK  205  A    between atoms: _476  and  _477
REMARK  206  A    between atoms: _480  and  _482
REMARK  207  A    between atoms: _482  and  _483
REMARK  208  A    between atoms: _486  and  _488
REMARK  209  A    between atoms: _488  and  _489
REMARK  210  A    between atoms: _491  and  _493
REMARK  211  A    between atoms: _493  and  _494
REMARK  212  A    between atoms: _493  and  _496
REMARK  213  A    between atoms: _496  and  _497
REMARK                            x       y       z     vdW  Elec       q    Type
REMARK                         _______ _______ _______ _____ _____    ______ ____
ROOT
ATOM      1  CA  PHE A   3      19.510  20.472 -12.054  0.00  0.00    +0.153 C 
ENDROOT
BRANCH   1   4
ATOM      2  C   ALA A   2      19.480  22.726 -11.100  0.00  0.00    +0.241 C 
ATOM      3  O   ALA A   2      19.334  22.302  -9.952  0.00  0.00    -0.273 OA
ATOM      4  N   PHE A   3      19.574  21.931 -12.164  0.00  0.00    -0.297 N 
ATOM      5  H   PHE A   3      19.697  22.360 -13.103  0.00  0.00    +0.150 HD
BRANCH   2   6
ATOM      6  CA  ALA A   2      19.558  24.232 -11.371  0.00  0.00    +0.149 C 
ATOM      7  CB  ALA A   2      18.167  24.842 -11.310  0.00  0.00    +0.031 C 
BRANCH   6  10
ATOM      8  C   GLY A   1      21.422  24.169 -12.924  0.00  0.00    +0.240 C 
ATOM      9  O   GLY A   1      22.151  23.652 -12.082  0.00  0.00    -0.274 OA
ATOM     10  N   ALA A   2      20.157  24.489 -12.673  0.00  0.00    -0.297 N 
ATOM     11  H   ALA A   2      19.584  24.931 -13.420  0.00  0.00    +0.150 HD
BRANCH   8  12
ATOM     12  CA  GLY A   1      21.936  24.470 -14.321  0.00  0.00    +0.169 C 
BRANCH  12  13
ATOM     13  N   GLY A   1      20.844  24.581 -15.270  0.00  0.00    -0.236 NA
ATOM     14  H   GLY A   1      20.644  25.499 -15.716  0.00  0.00    +0.142 HD
ENDBRANCH  12  13
ENDBRANCH   8  12
ENDBRANCH   6  10
ENDBRANCH   2   6
ENDBRANCH   1   4
BRANCH   1  15
ATOM     15  C   PHE A   3      20.884  19.824 -11.992  0.00  0.00    +0.241 C 
ATOM     16  N   SER A   4      21.903  20.629 -11.722  0.00  0.00    -0.295 N 
ATOM     17  H   SER A   4      21.732  21.643 -11.566  0.00  0.00    +0.150 HD
ATOM     18  O   PHE A   3      21.024  18.610 -12.194  0.00  0.00    -0.273 OA
BRANCH  16  19
ATOM     19  CA  SER A   4      23.254  20.106 -11.642  0.00  0.00    +0.178 C 
BRANCH  19  20
ATOM     20  C   SER A   4      23.374  19.006 -10.584  0.00  0.00    +0.243 C 
ATOM     21  N   GLY A   5      22.743  19.216  -9.434  0.00  0.00    -0.296 N 
ATOM     22  H   GLY A   5      22.208  20.098  -9.298  0.00  0.00    +0.150 HD
ATOM     23  O   SER A   4      24.026  17.990 -10.816  0.00  0.00    -0.273 OA
BRANCH  21  24
ATOM     24  CA  GLY A   5      22.787  18.236  -8.363  0.00  0.00    +0.163 C 
BRANCH  24  25
ATOM     25  C   GLY A   5      22.112  16.933  -8.750  0.00  0.00    +0.229 C 
ATOM     26  O   GLY A   5      22.700  15.869  -8.589  0.00  0.00    -0.286 OA
ENDBRANCH  24  25
ENDBRANCH  21  24
ENDBRANCH  19  20
BRANCH  19  27
ATOM     27  CB  SER A   4      24.234  21.242 -11.348  0.00  0.00    +0.166 C 
BRANCH  27  28
ATOM     28  OG  SER A   4      24.214  22.172 -12.417  0.00  0.00    -0.380 OA
ATOM     29  H   SER A   4      23.300  22.541 -12.515  0.00  0.00    +0.211 HD
ENDBRANCH  27  28
ENDBRANCH  19  27
ENDBRANCH  16  19
ENDBRANCH   1  15
BRANCH   1  30
ATOM     30  CB  PHE A   3      18.742  19.879 -13.236  0.00  0.00    +0.055 C 
BRANCH  30  31
ATOM     31  CG  PHE A   3      17.328  20.345 -13.325  0.00  0.00    -0.020 A 
ATOM     32  CD2 PHE A   3      16.299  19.575 -12.789  0.00  0.00    -0.004 A 
ATOM     33  CE2 PHE A   3      14.983  20.016 -12.835  0.00  0.00    -0.000 A 
ATOM     34  CZ  PHE A   3      14.684  21.242 -13.425  0.00  0.00    -0.000 A 
ATOM     35  CE1 PHE A   3      15.707  22.019 -13.966  0.00  0.00    -0.000 A 
ATOM     36  CD1 PHE A   3      17.020  21.567 -13.914  0.00  0.00    -0.004 A 
ENDBRANCH  30  31
ENDBRANCH   1  30
TORSDOF 14
REMARK  Name = ../refined-set-2016/2ews/2ews_pocket.pdb
REMARK  213 active torsions:
REMARK  status: ('A' for Active; 'I' for Inactive)
REMARK    1  A    between atoms: _1  and  _3
REMARK    2  A    between atoms: _3  and  _4
REMARK    3  A    between atoms: _3  and  _6
REMARK    4  A    between atoms: _6  and  _7
REMARK    5  A    between atoms: _10  and  _12
REMARK    6  A    between atoms: _12  and  _13
REMARK    7  A    between atoms: _16  and  _18
REMARK    8  A    between atoms: _18  and  _19
REMARK    9  A    between atoms: _21  and  _23
REMARK   10  A    between atoms: _23  and  _24
REMARK   11  A    between atoms: _26  and  _28
REMARK   12  A    between atoms: _28  and  _29
REMARK   13  A    between atoms: _28  and  _31
REMARK   14  A    between atoms: _31  and  _32
REMARK   15  A    between atoms: _35  and  _37
REMARK   16  A    between atoms: _37  and  _38
REMARK   17  A    between atoms: _37  and  _40
REMARK   18  A    between atoms: _40  and  _41
REMARK   19  A    between atoms: _44  and  _46
REMARK   20  A    between atoms: _46  and  _47
REMARK   21  A    between atoms: _46  and  _49
REMARK   22  A    between atoms: _49  and  _50
REMARK   23  A    between atoms: _53  and  _55
REMARK   24  A    between atoms: _55  and  _56
REMARK   25  A    between atoms: _55  and  _58
REMARK   26  A    between atoms: _58  and  _59
REMARK   27  A    between atoms: _59  and  _60
REMARK   28  A    between atoms: _60  and  _61
REMARK   29  A    between atoms: _61  and  _62
REMARK   30  A    between atoms: _66  and  _68
REMARK   31  A    between atoms: _68  and  _69
REMARK   32  A    between atoms: _68  and  _71
REMARK   33  A    between atoms: _71  and  _72
REMARK   34  A    between atoms: _75  and  _77
REMARK   35  A    between atoms: _77  and  _78
REMARK   36  A    between atoms: _77  and  _80
REMARK   37  A    between atoms: _80  and  _81
REMARK   38  A    between atoms: _81  and  _82
REMARK   39  A    between atoms: _85  and  _87
REMARK   40  A    between atoms: _87  and  _88
REMARK   41  A    between atoms: _87  and  _90
REMARK   42  A    between atoms: _90  and  _91
REMARK   43  A    between atoms: _94  and  _96
REMARK   44  A    between atoms: _96  and  _97
REMARK   45  A    between atoms: _96  and  _99
REMARK   46  A    between atoms: _99  and  _100
REMARK   47  A    between atoms: _103  and  _105
REMARK   48  A    between atoms: _105  and  _106
REMARK   49  A    between atoms: _105  and  _108
REMARK   50  A    between atoms: _108  and  _109
REMARK   51  A    between atoms: _109  and  _110
REMARK   52  A    between atoms: _110  and  _111
REMARK   53  A    between atoms: _111  and  _112
REMARK   54  A    between atoms: _116  and  _118
REMARK   55  A    between atoms: _118  and  _119
REMARK   56  A    between atoms: _118  and  _121
REMARK   57  A    between atoms: _121  and  _122
REMARK   58  A    between atoms: _125  and  _127
REMARK   59  A    between atoms: _127  and  _128
REMARK   60  A    between atoms: _130  and  _132
REMARK   61  A    between atoms: _132  and  _133
REMARK   62  A    between atoms: _135  and  _137
REMARK   63  A    between atoms: _137  and  _138
REMARK   64  A    between atoms: _137  and  _140
REMARK   65  A    between atoms: _140  and  _141
REMARK   66  A    between atoms: _146  and  _148
REMARK   67  A    between atoms: _148  and  _149
REMARK   68  A    between atoms: _148  and  _151
REMARK   69  A    between atoms: _151  and  _152
REMARK   70  A    between atoms: _152  and  _153
REMARK   71  A    between atoms: _156  and  _158
REMARK   72  A    between atoms: _158  and  _159
REMARK   73  A    between atoms: _158  and  _161
REMARK   74  A    between atoms: _161  and  _162
REMARK   75  A    between atoms: _168  and  _170
REMARK   76  A    between atoms: _170  and  _171
REMARK   77  A    between atoms: _170  and  _173
REMARK   78  A    between atoms: _173  and  _174
REMARK   79  A    between atoms: _179  and  _181
REMARK   80  A    between atoms: _181  and  _182
REMARK   81  A    between atoms: _181  and  _184
REMARK   82  A    between atoms: _187  and  _189
REMARK   83  A    between atoms: _189  and  _190
REMARK   84  A    between atoms: _192  and  _194
REMARK   85  A    between atoms: _194  and  _195
REMARK   86  A    between atoms: _194  and  _197
REMARK   87  A    between atoms: _197  and  _198
REMARK   88  A    between atoms: _201  and  _203
REMARK   89  A    between atoms: _203  and  _204
REMARK   90  A    between atoms: _206  and  _208
REMARK   91  A    between atoms: _208  and  _209
REMARK   92  A    between atoms: _208  and  _211
REMARK   93  A    between atoms: _211  and  _212
REMARK   94  A    between atoms: _215  and  _217
REMARK   95  A    between atoms: _217  and  _218
REMARK   96  A    between atoms: _217  and  _220
REMARK   97  A    between atoms: _220  and  _221
REMARK   98  A    between atoms: _223  and  _225
REMARK   99  A    between atoms: _225  and  _226
REMARK  100  A    between atoms: _228  and  _230
REMARK  101  A    between atoms: _230  and  _231
REMARK  102  A    between atoms: _233  and  _235
REMARK  103  A    between atoms: _235  and  _236
REMARK  104  A    between atoms: _238  and  _240
REMARK  105  A    between atoms: _240  and  _241
REMARK  106  A    between atoms: _240  and  _243
REMARK  107  A    between atoms: _243  and  _244
REMARK  108  A    between atoms: _244  and  _245
REMARK  109  A    between atoms: _247  and  _249
REMARK  110  A    between atoms: _249  and  _250
REMARK  111  A    between atoms: _249  and  _252
REMARK  112  A    between atoms: _252  and  _253
REMARK  113  A    between atoms: _256  and  _258
REMARK  114  A    between atoms: _258  and  _259
REMARK  115  A    between atoms: _258  and  _261
REMARK  116  A    between atoms: _261  and  _262
REMARK  117  A    between atoms: _262  and  _263
REMARK  118  A    between atoms: _268  and  _270
REMARK  119  A    between atoms: _270  and  _271
REMARK  120  A    between atoms: _273  and  _275
REMARK  121  A    between atoms: _275  and  _276
REMARK  122  A    between atoms: _275  and  _278
REMARK  123  A    between atoms: _278  and  _279
REMARK  124  A    between atoms: _282  and  _284
REMARK  125  A    between atoms: _284  and  _285
REMARK  126  A    between atoms: _284  and  _287
REMARK  127  A    between atoms: _287  and  _288
REMARK  128  A    between atoms: _291  and  _293
REMARK  129  A    between atoms: _293  and  _294
REMARK  130  A    between atoms: _293  and  _296
REMARK  131  A    between atoms: _296  and  _297
REMARK  132  A    between atoms: _302  and  _303
REMARK  133  A    between atoms: _305  and  _307
REMARK  134  A    between atoms: _307  and  _308
REMARK  135  A    between atoms: _307  and  _310
REMARK  136  A    between atoms: _310  and  _311
REMARK  137  A    between atoms: _311  and  _312
REMARK  138  A    between atoms: _312  and  _313
REMARK  139  A    between atoms: _313  and  _314
REMARK  140  A    between atoms: _318  and  _320
REMARK  141  A    between atoms: _320  and  _321
REMARK  142  A    between atoms: _320  and  _323
REMARK  143  A    between atoms: _323  and  _324
REMARK  144  A    between atoms: _327  and  _329
REMARK  145  A    between atoms: _329  and  _330
REMARK  146  A    between atoms: _329  and  _332
REMARK  147  A    between atoms: _332  and  _333
REMARK  148  A    between atoms: _336  and  _338
REMARK  149  A    between atoms: _338  and  _339
REMARK  150  A    between atoms: _338  and  _341
REMARK  151  A    between atoms: _341  and  _342
REMARK  152  A    between atoms: _345  and  _347
REMARK  153  A    between atoms: _347  and  _348
REMARK  154  A    between atoms: _350  and  _352
REMARK  155  A    between atoms: _352  and  _353
REMARK  156  A    between atoms: _352  and  _355
REMARK  157  A    between atoms: _355  and  _356
REMARK  158  A    between atoms: _358  and  _360
REMARK  159  A    between atoms: _360  and  _361
REMARK  160  A    between atoms: _360  and  _363
REMARK  161  A    between atoms: _363  and  _364
REMARK  162  A    between atoms: _366  and  _368
REMARK  163  A    between atoms: _368  and  _369
REMARK  164  A    between atoms: _368  and  _371
REMARK  165  A    between atoms: _371  and  _372
REMARK  166  A    between atoms: _378  and  _380
REMARK  167  A    between atoms: _380  and  _381
REMARK  168  A    between atoms: _380  and  _383
REMARK  169  A    between atoms: _383  and  _384
REMARK  170  A    between atoms: _389  and  _391
REMARK  171  A    between atoms: _391  and  _392
REMARK  172  A    between atoms: _391  and  _394
REMARK  173  A    between atoms: _394  and  _395
REMARK  174  A    between atoms: _400  and  _402
REMARK  175  A    between atoms: _402  and  _403
REMARK  176  A    between atoms: _402  and  _405
REMARK  177  A    between atoms: _405  and  _406
REMARK  178  A    between atoms: _411  and  _413
REMARK  179  A    between atoms: _413  and  _414
REMARK  180  A    between atoms: _413  and  _416
REMARK  181  A    between atoms: _416  and  _417
REMARK  182  A    between atoms: _420  and  _422
REMARK  183  A    between atoms: _422  and  _423
REMARK  184  A    between atoms: _425  and  _427
REMARK  185  A    between atoms: _427  and  _428
REMARK  186  A    between atoms: _431  and  _433
REMARK  187  A    between atoms: _433  and  _434
REMARK  188  A    between atoms: _433  and  _436
REMARK  189  A    between atoms: _436  and  _437
REMARK  190  A    between atoms: _443  and  _445
REMARK  191  A    between atoms: _445  and  _446
REMARK  192  A    between atoms: _445  and  _448
REMARK  193  A    between atoms: _448  and  _449
REMARK  194  A    between atoms: _451  and  _453
REMARK  195  A    between atoms: _453  and  _454
REMARK  196  A    between atoms: _456  and  _458
REMARK  197  A    between atoms: _458  and  _459
REMARK  198  A    between atoms: _458  and  _461
REMARK  199  A    between atoms: _461  and  _462
REMARK  200  A    between atoms: _465  and  _467
REMARK  201  A    between atoms: _467  and  _468
REMARK  202  A    between atoms: _467  and  _470
REMARK  203  A    between atoms: _470  and  _471
REMARK  204  A    between atoms: _474  and  _476
REMARK  205  A    between atoms: _476  and  _477
REMARK  206  A    between atoms: _480  and  _482
REMARK  207  A    between atoms: _482  and  _483
REMARK  208  A    between atoms: _486  and  _488
REMARK  209  A    between atoms: _488  and  _489
REMARK  210  A    between atoms: _491  and  _493
REMARK  211  A    between atoms: _493  and  _494
REMARK  212  A    between atoms: _493  and  _496
REMARK  213  A    between atoms: _496  and  _497
REMARK                            x       y       z     vdW  Elec       q    Type
REMARK                         _______ _______ _______ _____ _____    ______ ____
ROOT
ATOM      1  CA  LEU A   1      15.998  31.594   7.832  0.00  0.00    +0.133 C 
ENDROOT
BRANCH   1   2
ATOM      2  N   LEU A   1      15.877  33.040   7.732  0.00  0.00    -0.239 NA
ATOM      3  H   LEU A   1      16.197  33.519   6.866  0.00  0.00    +0.142 HD
ENDBRANCH   1   2
BRANCH   1   4
ATOM      4  C   LEU A   1      17.414  31.330   8.333  0.00  0.00    +0.224 C 
ATOM      5  O   LEU A   1      18.389  31.695   7.671  0.00  0.00    -0.287 OA
ENDBRANCH   1   4
BRANCH   1   6
ATOM      6  CB  LEU A   1      15.808  30.931   6.467  0.00  0.00    +0.025 C 
BRANCH   6   7
ATOM      7  CG  LEU A   1      15.999  29.410   6.425  0.00  0.00    +0.002 C 
ATOM      8  CD2 LEU A   1      14.871  28.735   7.200  0.00  0.00    +0.000 C 
ATOM      9  CD1 LEU A   1      16.011  28.927   4.973  0.00  0.00    +0.000 C 
ENDBRANCH   6   7
ENDBRANCH   1   6
TORSDOF 4
REMARK  Name = ../refined-set-2016/2ews/2ews_pocket.pdb
REMARK  213 active torsions:
REMARK  status: ('A' for Active; 'I' for Inactive)
REMARK    1  A    between atoms: _1  and  _3
REMARK    2  A    between atoms: _3  and  _4
REMARK    3  A    between atoms: _3  and  _6
REMARK    4  A    between atoms: _6  and  _7
REMARK    5  A    between atoms: _10  and  _12
REMARK    6  A    between atoms: _12  and  _13
REMARK    7  A    between atoms: _16  and  _18
REMARK    8  A    between atoms: _18  and  _19
REMARK    9  A    between atoms: _21  and  _23
REMARK   10  A    between atoms: _23  and  _24
REMARK   11  A    between atoms: _26  and  _28
REMARK   12  A    between atoms: _28  and  _29
REMARK   13  A    between atoms: _28  and  _31
REMARK   14  A    between atoms: _31  and  _32
REMARK   15  A    between atoms: _35  and  _37
REMARK   16  A    between atoms: _37  and  _38
REMARK   17  A    between atoms: _37  and  _40
REMARK   18  A    between atoms: _40  and  _41
REMARK   19  A    between atoms: _44  and  _46
REMARK   20  A    between atoms: _46  and  _47
REMARK   21  A    between atoms: _46  and  _49
REMARK   22  A    between atoms: _49  and  _50
REMARK   23  A    between atoms: _53  and  _55
REMARK   24  A    between atoms: _55  and  _56
REMARK   25  A    between atoms: _55  and  _58
REMARK   26  A    between atoms: _58  and  _59
REMARK   27  A    between atoms: _59  and  _60
REMARK   28  A    between atoms: _60  and  _61
REMARK   29  A    between atoms: _61  and  _62
REMARK   30  A    between atoms: _66  and  _68
REMARK   31  A    between atoms: _68  and  _69
REMARK   32  A    between atoms: _68  and  _71
REMARK   33  A    between atoms: _71  and  _72
REMARK   34  A    between atoms: _75  and  _77
REMARK   35  A    between atoms: _77  and  _78
REMARK   36  A    between atoms: _77  and  _80
REMARK   37  A    between atoms: _80  and  _81
REMARK   38  A    between atoms: _81  and  _82
REMARK   39  A    between atoms: _85  and  _87
REMARK   40  A    between atoms: _87  and  _88
REMARK   41  A    between atoms: _87  and  _90
REMARK   42  A    between atoms: _90  and  _91
REMARK   43  A    between atoms: _94  and  _96
REMARK   44  A    between atoms: _96  and  _97
REMARK   45  A    between atoms: _96  and  _99
REMARK   46  A    between atoms: _99  and  _100
REMARK   47  A    between atoms: _103  and  _105
REMARK   48  A    between atoms: _105  and  _106
REMARK   49  A    between atoms: _105  and  _108
REMARK   50  A    between atoms: _108  and  _109
REMARK   51  A    between atoms: _109  and  _110
REMARK   52  A    between atoms: _110  and  _111
REMARK   53  A    between atoms: _111  and  _112
REMARK   54  A    between atoms: _116  and  _118
REMARK   55  A    between atoms: _118  and  _119
REMARK   56  A    between atoms: _118  and  _121
REMARK   57  A    between atoms: _121  and  _122
REMARK   58  A    between atoms: _125  and  _127
REMARK   59  A    between atoms: _127  and  _128
REMARK   60  A    between atoms: _130  and  _132
REMARK   61  A    between atoms: _132  and  _133
REMARK   62  A    between atoms: _135  and  _137
REMARK   63  A    between atoms: _137  and  _138
REMARK   64  A    between atoms: _137  and  _140
REMARK   65  A    between atoms: _140  and  _141
REMARK   66  A    between atoms: _146  and  _148
REMARK   67  A    between atoms: _148  and  _149
REMARK   68  A    between atoms: _148  and  _151
REMARK   69  A    between atoms: _151  and  _152
REMARK   70  A    between atoms: _152  and  _153
REMARK   71  A    between atoms: _156  and  _158
REMARK   72  A    between atoms: _158  and  _159
REMARK   73  A    between atoms: _158  and  _161
REMARK   74  A    between atoms: _161  and  _162
REMARK   75  A    between atoms: _168  and  _170
REMARK   76  A    between atoms: _170  and  _171
REMARK   77  A    between atoms: _170  and  _173
REMARK   78  A    between atoms: _173  and  _174
REMARK   79  A    between atoms: _179  and  _181
REMARK   80  A    between atoms: _181  and  _182
REMARK   81  A    between atoms: _181  and  _184
REMARK   82  A    between atoms: _187  and  _189
REMARK   83  A    between atoms: _189  and  _190
REMARK   84  A    between atoms: _192  and  _194
REMARK   85  A    between atoms: _194  and  _195
REMARK   86  A    between atoms: _194  and  _197
REMARK   87  A    between atoms: _197  and  _198
REMARK   88  A    between atoms: _201  and  _203
REMARK   89  A    between atoms: _203  and  _204
REMARK   90  A    between atoms: _206  and  _208
REMARK   91  A    between atoms: _208  and  _209
REMARK   92  A    between atoms: _208  and  _211
REMARK   93  A    between atoms: _211  and  _212
REMARK   94  A    between atoms: _215  and  _217
REMARK   95  A    between atoms: _217  and  _218
REMARK   96  A    between atoms: _217  and  _220
REMARK   97  A    between atoms: _220  and  _221
REMARK   98  A    between atoms: _223  and  _225
REMARK   99  A    between atoms: _225  and  _226
REMARK  100  A    between atoms: _228  and  _230
REMARK  101  A    between atoms: _230  and  _231
REMARK  102  A    between atoms: _233  and  _235
REMARK  103  A    between atoms: _235  and  _236
REMARK  104  A    between atoms: _238  and  _240
REMARK  105  A    between atoms: _240  and  _241
REMARK  106  A    between atoms: _240  and  _243
REMARK  107  A    between atoms: _243  and  _244
REMARK  108  A    between atoms: _244  and  _245
REMARK  109  A    between atoms: _247  and  _249
REMARK  110  A    between atoms: _249  and  _250
REMARK  111  A    between atoms: _249  and  _252
REMARK  112  A    between atoms: _252  and  _253
REMARK  113  A    between atoms: _256  and  _258
REMARK  114  A    between atoms: _258  and  _259
REMARK  115  A    between atoms: _258  and  _261
REMARK  116  A    between atoms: _261  and  _262
REMARK  117  A    between atoms: _262  and  _263
REMARK  118  A    between atoms: _268  and  _270
REMARK  119  A    between atoms: _270  and  _271
REMARK  120  A    between atoms: _273  and  _275
REMARK  121  A    between atoms: _275  and  _276
REMARK  122  A    between atoms: _275  and  _278
REMARK  123  A    between atoms: _278  and  _279
REMARK  124  A    between atoms: _282  and  _284
REMARK  125  A    between atoms: _284  and  _285
REMARK  126  A    between atoms: _284  and  _287
REMARK  127  A    between atoms: _287  and  _288
REMARK  128  A    between atoms: _291  and  _293
REMARK  129  A    between atoms: _293  and  _294
REMARK  130  A    between atoms: _293  and  _296
REMARK  131  A    between atoms: _296  and  _297
REMARK  132  A    between atoms: _302  and  _303
REMARK  133  A    between atoms: _305  and  _307
REMARK  134  A    between atoms: _307  and  _308
REMARK  135  A    between atoms: _307  and  _310
REMARK  136  A    between atoms: _310  and  _311
REMARK  137  A    between atoms: _311  and  _312
REMARK  138  A    between atoms: _312  and  _313
REMARK  139  A    between atoms: _313  and  _314
REMARK  140  A    between atoms: _318  and  _320
REMARK  141  A    between atoms: _320  and  _321
REMARK  142  A    between atoms: _320  and  _323
REMARK  143  A    between atoms: _323  and  _324
REMARK  144  A    between atoms: _327  and  _329
REMARK  145  A    between atoms: _329  and  _330
REMARK  146  A    between atoms: _329  and  _332
REMARK  147  A    between atoms: _332  and  _333
REMARK  148  A    between atoms: _336  and  _338
REMARK  149  A    between atoms: _338  and  _339
REMARK  150  A    between atoms: _338  and  _341
REMARK  151  A    between atoms: _341  and  _342
REMARK  152  A    between atoms: _345  and  _347
REMARK  153  A    between atoms: _347  and  _348
REMARK  154  A    between atoms: _350  and  _352
REMARK  155  A    between atoms: _352  and  _353
REMARK  156  A    between atoms: _352  and  _355
REMARK  157  A    between atoms: _355  and  _356
REMARK  158  A    between atoms: _358  and  _360
REMARK  159  A    between atoms: _360  and  _361
REMARK  160  A    between atoms: _360  and  _363
REMARK  161  A    between atoms: _363  and  _364
REMARK  162  A    between atoms: _366  and  _368
REMARK  163  A    between atoms: _368  and  _369
REMARK  164  A    between atoms: _368  and  _371
REMARK  165  A    between atoms: _371  and  _372
REMARK  166  A    between atoms: _378  and  _380
REMARK  167  A    between atoms: _380  and  _381
REMARK  168  A    between atoms: _380  and  _383
REMARK  169  A    between atoms: _383  and  _384
REMARK  170  A    between atoms: _389  and  _391
REMARK  171  A    between atoms: _391  and  _392
REMARK  172  A    between atoms: _391  and  _394
REMARK  173  A    between atoms: _394  and  _395
REMARK  174  A    between atoms: _400  and  _402
REMARK  175  A    between atoms: _402  and  _403
REMARK  176  A    between atoms: _402  and  _405
REMARK  177  A    between atoms: _405  and  _406
REMARK  178  A    between atoms: _411  and  _413
REMARK  179  A    between atoms: _413  and  _414
REMARK  180  A    between atoms: _413  and  _416
REMARK  181  A    between atoms: _416  and  _417
REMARK  182  A    between atoms: _420  and  _422
REMARK  183  A    between atoms: _422  and  _423
REMARK  184  A    between atoms: _425  and  _427
REMARK  185  A    between atoms: _427  and  _428
REMARK  186  A    between atoms: _431  and  _433
REMARK  187  A    between atoms: _433  and  _434
REMARK  188  A    between atoms: _433  and  _436
REMARK  189  A    between atoms: _436  and  _437
REMARK  190  A    between atoms: _443  and  _445
REMARK  191  A    between atoms: _445  and  _446
REMARK  192  A    between atoms: _445  and  _448
REMARK  193  A    between atoms: _448  and  _449
REMARK  194  A    between atoms: _451  and  _453
REMARK  195  A    between atoms: _453  and  _454
REMARK  196  A    between atoms: _456  and  _458
REMARK  197  A    between atoms: _458  and  _459
REMARK  198  A    between atoms: _458  and  _461
REMARK  199  A    between atoms: _461  and  _462
REMARK  200  A    between atoms: _465  and  _467
REMARK  201  A    between atoms: _467  and  _468
REMARK  202  A    between atoms: _467  and  _470
REMARK  203  A    between atoms: _470  and  _471
REMARK  204  A    between atoms: _474  and  _476
REMARK  205  A    between atoms: _476  and  _477
REMARK  206  A    between atoms: _480  and  _482
REMARK  207  A    between atoms: _482  and  _483
REMARK  208  A    between atoms: _486  and  _488
REMARK  209  A    between atoms: _488  and  _489
REMARK  210  A    between atoms: _491  and  _493
REMARK  211  A    between atoms: _493  and  _494
REMARK  212  A    between atoms: _493  and  _496
REMARK  213  A    between atoms: _496  and  _497
REMARK                            x       y       z     vdW  Elec       q    Type
REMARK                         _______ _______ _______ _____ _____    ______ ____
ROOT
ATOM      1  CA  ILE A   1      17.240  23.773   9.215  0.00  0.00    +0.133 C 
ENDROOT
BRANCH   1   2
ATOM      2  N   ILE A   1      17.118  24.912  10.118  0.00  0.00    -0.239 NA
ATOM      3  H   ILE A   1      17.974  25.439  10.385  0.00  0.00    +0.142 HD
ENDBRANCH   1   2
BRANCH   1   4
ATOM      4  C   ILE A   1      17.668  22.525   9.985  0.00  0.00    +0.224 C 
ATOM      5  O   ILE A   1      18.887  22.392  10.231  0.00  0.00    -0.287 OA
ENDBRANCH   1   4
BRANCH   1   6
ATOM      6  CB  ILE A   1      18.279  24.045   8.108  0.00  0.00    +0.023 C 
ATOM      7  CG2 ILE A   1      18.309  22.882   7.126  0.00  0.00    +0.002 C 
BRANCH   6   8
ATOM      8  CG1 ILE A   1      17.929  25.342   7.373  0.00  0.00    +0.002 C 
ATOM      9  CD1 ILE A   1      18.950  25.749   6.328  0.00  0.00    +0.000 C 
ENDBRANCH   6   8
ENDBRANCH   1   6
TORSDOF 4
REMARK  Name = ../refined-set-2016/2ews/2ews_pocket.pdb
REMARK  213 active torsions:
REMARK  status: ('A' for Active; 'I' for Inactive)
REMARK    1  A    between atoms: _1  and  _3
REMARK    2  A    between atoms: _3  and  _4
REMARK    3  A    between atoms: _3  and  _6
REMARK    4  A    between atoms: _6  and  _7
REMARK    5  A    between atoms: _10  and  _12
REMARK    6  A    between atoms: _12  and  _13
REMARK    7  A    between atoms: _16  and  _18
REMARK    8  A    between atoms: _18  and  _19
REMARK    9  A    between atoms: _21  and  _23
REMARK   10  A    between atoms: _23  and  _24
REMARK   11  A    between atoms: _26  and  _28
REMARK   12  A    between atoms: _28  and  _29
REMARK   13  A    between atoms: _28  and  _31
REMARK   14  A    between atoms: _31  and  _32
REMARK   15  A    between atoms: _35  and  _37
REMARK   16  A    between atoms: _37  and  _38
REMARK   17  A    between atoms: _37  and  _40
REMARK   18  A    between atoms: _40  and  _41
REMARK   19  A    between atoms: _44  and  _46
REMARK   20  A    between atoms: _46  and  _47
REMARK   21  A    between atoms: _46  and  _49
REMARK   22  A    between atoms: _49  and  _50
REMARK   23  A    between atoms: _53  and  _55
REMARK   24  A    between atoms: _55  and  _56
REMARK   25  A    between atoms: _55  and  _58
REMARK   26  A    between atoms: _58  and  _59
REMARK   27  A    between atoms: _59  and  _60
REMARK   28  A    between atoms: _60  and  _61
REMARK   29  A    between atoms: _61  and  _62
REMARK   30  A    between atoms: _66  and  _68
REMARK   31  A    between atoms: _68  and  _69
REMARK   32  A    between atoms: _68  and  _71
REMARK   33  A    between atoms: _71  and  _72
REMARK   34  A    between atoms: _75  and  _77
REMARK   35  A    between atoms: _77  and  _78
REMARK   36  A    between atoms: _77  and  _80
REMARK   37  A    between atoms: _80  and  _81
REMARK   38  A    between atoms: _81  and  _82
REMARK   39  A    between atoms: _85  and  _87
REMARK   40  A    between atoms: _87  and  _88
REMARK   41  A    between atoms: _87  and  _90
REMARK   42  A    between atoms: _90  and  _91
REMARK   43  A    between atoms: _94  and  _96
REMARK   44  A    between atoms: _96  and  _97
REMARK   45  A    between atoms: _96  and  _99
REMARK   46  A    between atoms: _99  and  _100
REMARK   47  A    between atoms: _103  and  _105
REMARK   48  A    between atoms: _105  and  _106
REMARK   49  A    between atoms: _105  and  _108
REMARK   50  A    between atoms: _108  and  _109
REMARK   51  A    between atoms: _109  and  _110
REMARK   52  A    between atoms: _110  and  _111
REMARK   53  A    between atoms: _111  and  _112
REMARK   54  A    between atoms: _116  and  _118
REMARK   55  A    between atoms: _118  and  _119
REMARK   56  A    between atoms: _118  and  _121
REMARK   57  A    between atoms: _121  and  _122
REMARK   58  A    between atoms: _125  and  _127
REMARK   59  A    between atoms: _127  and  _128
REMARK   60  A    between atoms: _130  and  _132
REMARK   61  A    between atoms: _132  and  _133
REMARK   62  A    between atoms: _135  and  _137
REMARK   63  A    between atoms: _137  and  _138
REMARK   64  A    between atoms: _137  and  _140
REMARK   65  A    between atoms: _140  and  _141
REMARK   66  A    between atoms: _146  and  _148
REMARK   67  A    between atoms: _148  and  _149
REMARK   68  A    between atoms: _148  and  _151
REMARK   69  A    between atoms: _151  and  _152
REMARK   70  A    between atoms: _152  and  _153
REMARK   71  A    between atoms: _156  and  _158
REMARK   72  A    between atoms: _158  and  _159
REMARK   73  A    between atoms: _158  and  _161
REMARK   74  A    between atoms: _161  and  _162
REMARK   75  A    between atoms: _168  and  _170
REMARK   76  A    between atoms: _170  and  _171
REMARK   77  A    between atoms: _170  and  _173
REMARK   78  A    between atoms: _173  and  _174
REMARK   79  A    between atoms: _179  and  _181
REMARK   80  A    between atoms: _181  and  _182
REMARK   81  A    between atoms: _181  and  _184
REMARK   82  A    between atoms: _187  and  _189
REMARK   83  A    between atoms: _189  and  _190
REMARK   84  A    between atoms: _192  and  _194
REMARK   85  A    between atoms: _194  and  _195
REMARK   86  A    between atoms: _194  and  _197
REMARK   87  A    between atoms: _197  and  _198
REMARK   88  A    between atoms: _201  and  _203
REMARK   89  A    between atoms: _203  and  _204
REMARK   90  A    between atoms: _206  and  _208
REMARK   91  A    between atoms: _208  and  _209
REMARK   92  A    between atoms: _208  and  _211
REMARK   93  A    between atoms: _211  and  _212
REMARK   94  A    between atoms: _215  and  _217
REMARK   95  A    between atoms: _217  and  _218
REMARK   96  A    between atoms: _217  and  _220
REMARK   97  A    between atoms: _220  and  _221
REMARK   98  A    between atoms: _223  and  _225
REMARK   99  A    between atoms: _225  and  _226
REMARK  100  A    between atoms: _228  and  _230
REMARK  101  A    between atoms: _230  and  _231
REMARK  102  A    between atoms: _233  and  _235
REMARK  103  A    between atoms: _235  and  _236
REMARK  104  A    between atoms: _238  and  _240
REMARK  105  A    between atoms: _240  and  _241
REMARK  106  A    between atoms: _240  and  _243
REMARK  107  A    between atoms: _243  and  _244
REMARK  108  A    between atoms: _244  and  _245
REMARK  109  A    between atoms: _247  and  _249
REMARK  110  A    between atoms: _249  and  _250
REMARK  111  A    between atoms: _249  and  _252
REMARK  112  A    between atoms: _252  and  _253
REMARK  113  A    between atoms: _256  and  _258
REMARK  114  A    between atoms: _258  and  _259
REMARK  115  A    between atoms: _258  and  _261
REMARK  116  A    between atoms: _261  and  _262
REMARK  117  A    between atoms: _262  and  _263
REMARK  118  A    between atoms: _268  and  _270
REMARK  119  A    between atoms: _270  and  _271
REMARK  120  A    between atoms: _273  and  _275
REMARK  121  A    between atoms: _275  and  _276
REMARK  122  A    between atoms: _275  and  _278
REMARK  123  A    between atoms: _278  and  _279
REMARK  124  A    between atoms: _282  and  _284
REMARK  125  A    between atoms: _284  and  _285
REMARK  126  A    between atoms: _284  and  _287
REMARK  127  A    between atoms: _287  and  _288
REMARK  128  A    between atoms: _291  and  _293
REMARK  129  A    between atoms: _293  and  _294
REMARK  130  A    between atoms: _293  and  _296
REMARK  131  A    between atoms: _296  and  _297
REMARK  132  A    between atoms: _302  and  _303
REMARK  133  A    between atoms: _305  and  _307
REMARK  134  A    between atoms: _307  and  _308
REMARK  135  A    between atoms: _307  and  _310
REMARK  136  A    between atoms: _310  and  _311
REMARK  137  A    between atoms: _311  and  _312
REMARK  138  A    between atoms: _312  and  _313
REMARK  139  A    between atoms: _313  and  _314
REMARK  140  A    between atoms: _318  and  _320
REMARK  141  A    between atoms: _320  and  _321
REMARK  142  A    between atoms: _320  and  _323
REMARK  143  A    between atoms: _323  and  _324
REMARK  144  A    between atoms: _327  and  _329
REMARK  145  A    between atoms: _329  and  _330
REMARK  146  A    between atoms: _329  and  _332
REMARK  147  A    between atoms: _332  and  _333
REMARK  148  A    between atoms: _336  and  _338
REMARK  149  A    between atoms: _338  and  _339
REMARK  150  A    between atoms: _338  and  _341
REMARK  151  A    between atoms: _341  and  _342
REMARK  152  A    between atoms: _345  and  _347
REMARK  153  A    between atoms: _347  and  _348
REMARK  154  A    between atoms: _350  and  _352
REMARK  155  A    between atoms: _352  and  _353
REMARK  156  A    between atoms: _352  and  _355
REMARK  157  A    between atoms: _355  and  _356
REMARK  158  A    between atoms: _358  and  _360
REMARK  159  A    between atoms: _360  and  _361
REMARK  160  A    between atoms: _360  and  _363
REMARK  161  A    between atoms: _363  and  _364
REMARK  162  A    between atoms: _366  and  _368
REMARK  163  A    between atoms: _368  and  _369
REMARK  164  A    between atoms: _368  and  _371
REMARK  165  A    between atoms: _371  and  _372
REMARK  166  A    between atoms: _378  and  _380
REMARK  167  A    between atoms: _380  and  _381
REMARK  168  A    between atoms: _380  and  _383
REMARK  169  A    between atoms: _383  and  _384
REMARK  170  A    between atoms: _389  and  _391
REMARK  171  A    between atoms: _391  and  _392
REMARK  172  A    between atoms: _391  and  _394
REMARK  173  A    between atoms: _394  and  _395
REMARK  174  A    between atoms: _400  and  _402
REMARK  175  A    between atoms: _402  and  _403
REMARK  176  A    between atoms: _402  and  _405
REMARK  177  A    between atoms: _405  and  _406
REMARK  178  A    between atoms: _411  and  _413
REMARK  179  A    between atoms: _413  and  _414
REMARK  180  A    between atoms: _413  and  _416
REMARK  181  A    between atoms: _416  and  _417
REMARK  182  A    between atoms: _420  and  _422
REMARK  183  A    between atoms: _422  and  _423
REMARK  184  A    between atoms: _425  and  _427
REMARK  185  A    between atoms: _427  and  _428
REMARK  186  A    between atoms: _431  and  _433
REMARK  187  A    between atoms: _433  and  _434
REMARK  188  A    between atoms: _433  and  _436
REMARK  189  A    between atoms: _436  and  _437
REMARK  190  A    between atoms: _443  and  _445
REMARK  191  A    between atoms: _445  and  _446
REMARK  192  A    between atoms: _445  and  _448
REMARK  193  A    between atoms: _448  and  _449
REMARK  194  A    between atoms: _451  and  _453
REMARK  195  A    between atoms: _453  and  _454
REMARK  196  A    between atoms: _456  and  _458
REMARK  197  A    between atoms: _458  and  _459
REMARK  198  A    between atoms: _458  and  _461
REMARK  199  A    between atoms: _461  and  _462
REMARK  200  A    between atoms: _465  and  _467
REMARK  201  A    between atoms: _467  and  _468
REMARK  202  A    between atoms: _467  and  _470
REMARK  203  A    between atoms: _470  and  _471
REMARK  204  A    between atoms: _474  and  _476
REMARK  205  A    between atoms: _476  and  _477
REMARK  206  A    between atoms: _480  and  _482
REMARK  207  A    between atoms: _482  and  _483
REMARK  208  A    between atoms: _486  and  _488
REMARK  209  A    between atoms: _488  and  _489
REMARK  210  A    between atoms: _491  and  _493
REMARK  211  A    between atoms: _493  and  _494
REMARK  212  A    between atoms: _493  and  _496
REMARK  213  A    between atoms: _496  and  _497
REMARK                            x       y       z     vdW  Elec       q    Type
REMARK                         _______ _______ _______ _____ _____    ______ ____
ROOT
ATOM      1  C   ALA A   1      20.438  31.389   4.569  0.00  0.00    +0.238 C 
ATOM      2  N   ALA A   2      19.480  32.246   4.917  0.00  0.00    -0.298 N 
ATOM      3  H   ALA A   2      19.194  32.325   5.914  0.00  0.00    +0.150 HD
ATOM      4  O   ALA A   1      20.812  31.255   3.409  0.00  0.00    -0.274 OA
ENDROOT
BRANCH   1   5
ATOM      5  CA  ALA A   1      21.084  30.568   5.680  0.00  0.00    +0.145 C 
ATOM      6  CB  ALA A   1      20.342  29.237   5.861  0.00  0.00    +0.028 C 
BRANCH   5   7
ATOM      7  N   ALA A   1      21.085  31.328   6.919  0.00  0.00    -0.238 NA
ATOM      8  H   ALA A   1      20.351  31.153   7.634  0.00  0.00    +0.142 HD
ENDBRANCH   5   7
ENDBRANCH   1   5
BRANCH   2   9
ATOM      9  CA  ALA A   2      18.827  33.077   3.906  0.00  0.00    +0.137 C 
ATOM     10  CB  ALA A   2      17.833  32.242   3.099  0.00  0.00    +0.030 C 
BRANCH   9  11
ATOM     11  C   ALA A   2      18.126  34.282   4.501  0.00  0.00    +0.227 C 
ATOM     12  O   ALA A   2      17.066  34.150   5.125  0.00  0.00    -0.286 OA
ENDBRANCH   9  11
ENDBRANCH   2   9
TORSDOF 4
REMARK  Name = ../refined-set-2016/2ews/2ews_pocket.pdb
REMARK  213 active torsions:
REMARK  status: ('A' for Active; 'I' for Inactive)
REMARK    1  A    between atoms: _1  and  _3
REMARK    2  A    between atoms: _3  and  _4
REMARK    3  A    between atoms: _3  and  _6
REMARK    4  A    between atoms: _6  and  _7
REMARK    5  A    between atoms: _10  and  _12
REMARK    6  A    between atoms: _12  and  _13
REMARK    7  A    between atoms: _16  and  _18
REMARK    8  A    between atoms: _18  and  _19
REMARK    9  A    between atoms: _21  and  _23
REMARK   10  A    between atoms: _23  and  _24
REMARK   11  A    between atoms: _26  and  _28
REMARK   12  A    between atoms: _28  and  _29
REMARK   13  A    between atoms: _28  and  _31
REMARK   14  A    between atoms: _31  and  _32
REMARK   15  A    between atoms: _35  and  _37
REMARK   16  A    between atoms: _37  and  _38
REMARK   17  A    between atoms: _37  and  _40
REMARK   18  A    between atoms: _40  and  _41
REMARK   19  A    between atoms: _44  and  _46
REMARK   20  A    between atoms: _46  and  _47
REMARK   21  A    between atoms: _46  and  _49
REMARK   22  A    between atoms: _49  and  _50
REMARK   23  A    between atoms: _53  and  _55
REMARK   24  A    between atoms: _55  and  _56
REMARK   25  A    between atoms: _55  and  _58
REMARK   26  A    between atoms: _58  and  _59
REMARK   27  A    between atoms: _59  and  _60
REMARK   28  A    between atoms: _60  and  _61
REMARK   29  A    between atoms: _61  and  _62
REMARK   30  A    between atoms: _66  and  _68
REMARK   31  A    between atoms: _68  and  _69
REMARK   32  A    between atoms: _68  and  _71
REMARK   33  A    between atoms: _71  and  _72
REMARK   34  A    between atoms: _75  and  _77
REMARK   35  A    between atoms: _77  and  _78
REMARK   36  A    between atoms: _77  and  _80
REMARK   37  A    between atoms: _80  and  _81
REMARK   38  A    between atoms: _81  and  _82
REMARK   39  A    between atoms: _85  and  _87
REMARK   40  A    between atoms: _87  and  _88
REMARK   41  A    between atoms: _87  and  _90
REMARK   42  A    between atoms: _90  and  _91
REMARK   43  A    between atoms: _94  and  _96
REMARK   44  A    between atoms: _96  and  _97
REMARK   45  A    between atoms: _96  and  _99
REMARK   46  A    between atoms: _99  and  _100
REMARK   47  A    between atoms: _103  and  _105
REMARK   48  A    between atoms: _105  and  _106
REMARK   49  A    between atoms: _105  and  _108
REMARK   50  A    between atoms: _108  and  _109
REMARK   51  A    between atoms: _109  and  _110
REMARK   52  A    between atoms: _110  and  _111
REMARK   53  A    between atoms: _111  and  _112
REMARK   54  A    between atoms: _116  and  _118
REMARK   55  A    between atoms: _118  and  _119
REMARK   56  A    between atoms: _118  and  _121
REMARK   57  A    between atoms: _121  and  _122
REMARK   58  A    between atoms: _125  and  _127
REMARK   59  A    between atoms: _127  and  _128
REMARK   60  A    between atoms: _130  and  _132
REMARK   61  A    between atoms: _132  and  _133
REMARK   62  A    between atoms: _135  and  _137
REMARK   63  A    between atoms: _137  and  _138
REMARK   64  A    between atoms: _137  and  _140
REMARK   65  A    between atoms: _140  and  _141
REMARK   66  A    between atoms: _146  and  _148
REMARK   67  A    between atoms: _148  and  _149
REMARK   68  A    between atoms: _148  and  _151
REMARK   69  A    between atoms: _151  and  _152
REMARK   70  A    between atoms: _152  and  _153
REMARK   71  A    between atoms: _156  and  _158
REMARK   72  A    between atoms: _158  and  _159
REMARK   73  A    between atoms: _158  and  _161
REMARK   74  A    between atoms: _161  and  _162
REMARK   75  A    between atoms: _168  and  _170
REMARK   76  A    between atoms: _170  and  _171
REMARK   77  A    between atoms: _170  and  _173
REMARK   78  A    between atoms: _173  and  _174
REMARK   79  A    between atoms: _179  and  _181
REMARK   80  A    between atoms: _181  and  _182
REMARK   81  A    between atoms: _181  and  _184
REMARK   82  A    between atoms: _187  and  _189
REMARK   83  A    between atoms: _189  and  _190
REMARK   84  A    between atoms: _192  and  _194
REMARK   85  A    between atoms: _194  and  _195
REMARK   86  A    between atoms: _194  and  _197
REMARK   87  A    between atoms: _197  and  _198
REMARK   88  A    between atoms: _201  and  _203
REMARK   89  A    between atoms: _203  and  _204
REMARK   90  A    between atoms: _206  and  _208
REMARK   91  A    between atoms: _208  and  _209
REMARK   92  A    between atoms: _208  and  _211
REMARK   93  A    between atoms: _211  and  _212
REMARK   94  A    between atoms: _215  and  _217
REMARK   95  A    between atoms: _217  and  _218
REMARK   96  A    between atoms: _217  and  _220
REMARK   97  A    between atoms: _220  and  _221
REMARK   98  A    between atoms: _223  and  _225
REMARK   99  A    between atoms: _225  and  _226
REMARK  100  A    between atoms: _228  and  _230
REMARK  101  A    between atoms: _230  and  _231
REMARK  102  A    between atoms: _233  and  _235
REMARK  103  A    between atoms: _235  and  _236
REMARK  104  A    between atoms: _238  and  _240
REMARK  105  A    between atoms: _240  and  _241
REMARK  106  A    between atoms: _240  and  _243
REMARK  107  A    between atoms: _243  and  _244
REMARK  108  A    between atoms: _244  and  _245
REMARK  109  A    between atoms: _247  and  _249
REMARK  110  A    between atoms: _249  and  _250
REMARK  111  A    between atoms: _249  and  _252
REMARK  112  A    between atoms: _252  and  _253
REMARK  113  A    between atoms: _256  and  _258
REMARK  114  A    between atoms: _258  and  _259
REMARK  115  A    between atoms: _258  and  _261
REMARK  116  A    between atoms: _261  and  _262
REMARK  117  A    between atoms: _262  and  _263
REMARK  118  A    between atoms: _268  and  _270
REMARK  119  A    between atoms: _270  and  _271
REMARK  120  A    between atoms: _273  and  _275
REMARK  121  A    between atoms: _275  and  _276
REMARK  122  A    between atoms: _275  and  _278
REMARK  123  A    between atoms: _278  and  _279
REMARK  124  A    between atoms: _282  and  _284
REMARK  125  A    between atoms: _284  and  _285
REMARK  126  A    between atoms: _284  and  _287
REMARK  127  A    between atoms: _287  and  _288
REMARK  128  A    between atoms: _291  and  _293
REMARK  129  A    between atoms: _293  and  _294
REMARK  130  A    between atoms: _293  and  _296
REMARK  131  A    between atoms: _296  and  _297
REMARK  132  A    between atoms: _302  and  _303
REMARK  133  A    between atoms: _305  and  _307
REMARK  134  A    between atoms: _307  and  _308
REMARK  135  A    between atoms: _307  and  _310
REMARK  136  A    between atoms: _310  and  _311
REMARK  137  A    between atoms: _311  and  _312
REMARK  138  A    between atoms: _312  and  _313
REMARK  139  A    between atoms: _313  and  _314
REMARK  140  A    between atoms: _318  and  _320
REMARK  141  A    between atoms: _320  and  _321
REMARK  142  A    between atoms: _320  and  _323
REMARK  143  A    between atoms: _323  and  _324
REMARK  144  A    between atoms: _327  and  _329
REMARK  145  A    between atoms: _329  and  _330
REMARK  146  A    between atoms: _329  and  _332
REMARK  147  A    between atoms: _332  and  _333
REMARK  148  A    between atoms: _336  and  _338
REMARK  149  A    between atoms: _338  and  _339
REMARK  150  A    between atoms: _338  and  _341
REMARK  151  A    between atoms: _341  and  _342
REMARK  152  A    between atoms: _345  and  _347
REMARK  153  A    between atoms: _347  and  _348
REMARK  154  A    between atoms: _350  and  _352
REMARK  155  A    between atoms: _352  and  _353
REMARK  156  A    between atoms: _352  and  _355
REMARK  157  A    between atoms: _355  and  _356
REMARK  158  A    between atoms: _358  and  _360
REMARK  159  A    between atoms: _360  and  _361
REMARK  160  A    between atoms: _360  and  _363
REMARK  161  A    between atoms: _363  and  _364
REMARK  162  A    between atoms: _366  and  _368
REMARK  163  A    between atoms: _368  and  _369
REMARK  164  A    between atoms: _368  and  _371
REMARK  165  A    between atoms: _371  and  _372
REMARK  166  A    between atoms: _378  and  _380
REMARK  167  A    between atoms: _380  and  _381
REMARK  168  A    between atoms: _380  and  _383
REMARK  169  A    between atoms: _383  and  _384
REMARK  170  A    between atoms: _389  and  _391
REMARK  171  A    between atoms: _391  and  _392
REMARK  172  A    between atoms: _391  and  _394
REMARK  173  A    between atoms: _394  and  _395
REMARK  174  A    between atoms: _400  and  _402
REMARK  175  A    between atoms: _402  and  _403
REMARK  176  A    between atoms: _402  and  _405
REMARK  177  A    between atoms: _405  and  _406
REMARK  178  A    between atoms: _411  and  _413
REMARK  179  A    between atoms: _413  and  _414
REMARK  180  A    between atoms: _413  and  _416
REMARK  181  A    between atoms: _416  and  _417
REMARK  182  A    between atoms: _420  and  _422
REMARK  183  A    between atoms: _422  and  _423
REMARK  184  A    between atoms: _425  and  _427
REMARK  185  A    between atoms: _427  and  _428
REMARK  186  A    between atoms: _431  and  _433
REMARK  187  A    between atoms: _433  and  _434
REMARK  188  A    between atoms: _433  and  _436
REMARK  189  A    between atoms: _436  and  _437
REMARK  190  A    between atoms: _443  and  _445
REMARK  191  A    between atoms: _445  and  _446
REMARK  192  A    between atoms: _445  and  _448
REMARK  193  A    between atoms: _448  and  _449
REMARK  194  A    between atoms: _451  and  _453
REMARK  195  A    between atoms: _453  and  _454
REMARK  196  A    between atoms: _456  and  _458
REMARK  197  A    between atoms: _458  and  _459
REMARK  198  A    between atoms: _458  and  _461
REMARK  199  A    between atoms: _461  and  _462
REMARK  200  A    between atoms: _465  and  _467
REMARK  201  A    between atoms: _467  and  _468
REMARK  202  A    between atoms: _467  and  _470
REMARK  203  A    between atoms: _470  and  _471
REMARK  204  A    between atoms: _474  and  _476
REMARK  205  A    between atoms: _476  and  _477
REMARK  206  A    between atoms: _480  and  _482
REMARK  207  A    between atoms: _482  and  _483
REMARK  208  A    between atoms: _486  and  _488
REMARK  209  A    between atoms: _488  and  _489
REMARK  210  A    between atoms: _491  and  _493
REMARK  211  A    between atoms: _493  and  _494
REMARK  212  A    between atoms: _493  and  _496
REMARK  213  A    between atoms: _496  and  _497
REMARK                            x       y       z     vdW  Elec       q    Type
REMARK                         _______ _______ _______ _____ _____    ______ ____
ROOT
ATOM      1  CA  GLY A   1      14.063  33.564   3.806  0.00  0.00    +0.156 C 
ENDROOT
BRANCH   1   2
ATOM      2  N   GLY A   1      14.531  34.864   4.267  0.00  0.00    -0.238 NA
ATOM      3  H   GLY A   1      15.471  34.947   4.704  0.00  0.00    +0.142 HD
ENDBRANCH   1   2
BRANCH   1   4
ATOM      4  C   GLY A   1      12.958  32.883   4.604  0.00  0.00    +0.226 C 
ATOM      5  O   GLY A   1      12.436  31.845   4.188  0.00  0.00    -0.287 OA
ENDBRANCH   1   4
TORSDOF 2
REMARK  Name = ../refined-set-2016/2ews/2ews_pocket.pdb
REMARK  213 active torsions:
REMARK  status: ('A' for Active; 'I' for Inactive)
REMARK    1  A    between atoms: _1  and  _3
REMARK    2  A    between atoms: _3  and  _4
REMARK    3  A    between atoms: _3  and  _6
REMARK    4  A    between atoms: _6  and  _7
REMARK    5  A    between atoms: _10  and  _12
REMARK    6  A    between atoms: _12  and  _13
REMARK    7  A    between atoms: _16  and  _18
REMARK    8  A    between atoms: _18  and  _19
REMARK    9  A    between atoms: _21  and  _23
REMARK   10  A    between atoms: _23  and  _24
REMARK   11  A    between atoms: _26  and  _28
REMARK   12  A    between atoms: _28  and  _29
REMARK   13  A    between atoms: _28  and  _31
REMARK   14  A    between atoms: _31  and  _32
REMARK   15  A    between atoms: _35  and  _37
REMARK   16  A    between atoms: _37  and  _38
REMARK   17  A    between atoms: _37  and  _40
REMARK   18  A    between atoms: _40  and  _41
REMARK   19  A    between atoms: _44  and  _46
REMARK   20  A    between atoms: _46  and  _47
REMARK   21  A    between atoms: _46  and  _49
REMARK   22  A    between atoms: _49  and  _50
REMARK   23  A    between atoms: _53  and  _55
REMARK   24  A    between atoms: _55  and  _56
REMARK   25  A    between atoms: _55  and  _58
REMARK   26  A    between atoms: _58  and  _59
REMARK   27  A    between atoms: _59  and  _60
REMARK   28  A    between atoms: _60  and  _61
REMARK   29  A    between atoms: _61  and  _62
REMARK   30  A    between atoms: _66  and  _68
REMARK   31  A    between atoms: _68  and  _69
REMARK   32  A    between atoms: _68  and  _71
REMARK   33  A    between atoms: _71  and  _72
REMARK   34  A    between atoms: _75  and  _77
REMARK   35  A    between atoms: _77  and  _78
REMARK   36  A    between atoms: _77  and  _80
REMARK   37  A    between atoms: _80  and  _81
REMARK   38  A    between atoms: _81  and  _82
REMARK   39  A    between atoms: _85  and  _87
REMARK   40  A    between atoms: _87  and  _88
REMARK   41  A    between atoms: _87  and  _90
REMARK   42  A    between atoms: _90  and  _91
REMARK   43  A    between atoms: _94  and  _96
REMARK   44  A    between atoms: _96  and  _97
REMARK   45  A    between atoms: _96  and  _99
REMARK   46  A    between atoms: _99  and  _100
REMARK   47  A    between atoms: _103  and  _105
REMARK   48  A    between atoms: _105  and  _106
REMARK   49  A    between atoms: _105  and  _108
REMARK   50  A    between atoms: _108  and  _109
REMARK   51  A    between atoms: _109  and  _110
REMARK   52  A    between atoms: _110  and  _111
REMARK   53  A    between atoms: _111  and  _112
REMARK   54  A    between atoms: _116  and  _118
REMARK   55  A    between atoms: _118  and  _119
REMARK   56  A    between atoms: _118  and  _121
REMARK   57  A    between atoms: _121  and  _122
REMARK   58  A    between atoms: _125  and  _127
REMARK   59  A    between atoms: _127  and  _128
REMARK   60  A    between atoms: _130  and  _132
REMARK   61  A    between atoms: _132  and  _133
REMARK   62  A    between atoms: _135  and  _137
REMARK   63  A    between atoms: _137  and  _138
REMARK   64  A    between atoms: _137  and  _140
REMARK   65  A    between atoms: _140  and  _141
REMARK   66  A    between atoms: _146  and  _148
REMARK   67  A    between atoms: _148  and  _149
REMARK   68  A    between atoms: _148  and  _151
REMARK   69  A    between atoms: _151  and  _152
REMARK   70  A    between atoms: _152  and  _153
REMARK   71  A    between atoms: _156  and  _158
REMARK   72  A    between atoms: _158  and  _159
REMARK   73  A    between atoms: _158  and  _161
REMARK   74  A    between atoms: _161  and  _162
REMARK   75  A    between atoms: _168  and  _170
REMARK   76  A    between atoms: _170  and  _171
REMARK   77  A    between atoms: _170  and  _173
REMARK   78  A    between atoms: _173  and  _174
REMARK   79  A    between atoms: _179  and  _181
REMARK   80  A    between atoms: _181  and  _182
REMARK   81  A    between atoms: _181  and  _184
REMARK   82  A    between atoms: _187  and  _189
REMARK   83  A    between atoms: _189  and  _190
REMARK   84  A    between atoms: _192  and  _194
REMARK   85  A    between atoms: _194  and  _195
REMARK   86  A    between atoms: _194  and  _197
REMARK   87  A    between atoms: _197  and  _198
REMARK   88  A    between atoms: _201  and  _203
REMARK   89  A    between atoms: _203  and  _204
REMARK   90  A    between atoms: _206  and  _208
REMARK   91  A    between atoms: _208  and  _209
REMARK   92  A    between atoms: _208  and  _211
REMARK   93  A    between atoms: _211  and  _212
REMARK   94  A    between atoms: _215  and  _217
REMARK   95  A    between atoms: _217  and  _218
REMARK   96  A    between atoms: _217  and  _220
REMARK   97  A    between atoms: _220  and  _221
REMARK   98  A    between atoms: _223  and  _225
REMARK   99  A    between atoms: _225  and  _226
REMARK  100  A    between atoms: _228  and  _230
REMARK  101  A    between atoms: _230  and  _231
REMARK  102  A    between atoms: _233  and  _235
REMARK  103  A    between atoms: _235  and  _236
REMARK  104  A    between atoms: _238  and  _240
REMARK  105  A    between atoms: _240  and  _241
REMARK  106  A    between atoms: _240  and  _243
REMARK  107  A    between atoms: _243  and  _244
REMARK  108  A    between atoms: _244  and  _245
REMARK  109  A    between atoms: _247  and  _249
REMARK  110  A    between atoms: _249  and  _250
REMARK  111  A    between atoms: _249  and  _252
REMARK  112  A    between atoms: _252  and  _253
REMARK  113  A    between atoms: _256  and  _258
REMARK  114  A    between atoms: _258  and  _259
REMARK  115  A    between atoms: _258  and  _261
REMARK  116  A    between atoms: _261  and  _262
REMARK  117  A    between atoms: _262  and  _263
REMARK  118  A    between atoms: _268  and  _270
REMARK  119  A    between atoms: _270  and  _271
REMARK  120  A    between atoms: _273  and  _275
REMARK  121  A    between atoms: _275  and  _276
REMARK  122  A    between atoms: _275  and  _278
REMARK  123  A    between atoms: _278  and  _279
REMARK  124  A    between atoms: _282  and  _284
REMARK  125  A    between atoms: _284  and  _285
REMARK  126  A    between atoms: _284  and  _287
REMARK  127  A    between atoms: _287  and  _288
REMARK  128  A    between atoms: _291  and  _293
REMARK  129  A    between atoms: _293  and  _294
REMARK  130  A    between atoms: _293  and  _296
REMARK  131  A    between atoms: _296  and  _297
REMARK  132  A    between atoms: _302  and  _303
REMARK  133  A    between atoms: _305  and  _307
REMARK  134  A    between atoms: _307  and  _308
REMARK  135  A    between atoms: _307  and  _310
REMARK  136  A    between atoms: _310  and  _311
REMARK  137  A    between atoms: _311  and  _312
REMARK  138  A    between atoms: _312  and  _313
REMARK  139  A    between atoms: _313  and  _314
REMARK  140  A    between atoms: _318  and  _320
REMARK  141  A    between atoms: _320  and  _321
REMARK  142  A    between atoms: _320  and  _323
REMARK  143  A    between atoms: _323  and  _324
REMARK  144  A    between atoms: _327  and  _329
REMARK  145  A    between atoms: _329  and  _330
REMARK  146  A    between atoms: _329  and  _332
REMARK  147  A    between atoms: _332  and  _333
REMARK  148  A    between atoms: _336  and  _338
REMARK  149  A    between atoms: _338  and  _339
REMARK  150  A    between atoms: _338  and  _341
REMARK  151  A    between atoms: _341  and  _342
REMARK  152  A    between atoms: _345  and  _347
REMARK  153  A    between atoms: _347  and  _348
REMARK  154  A    between atoms: _350  and  _352
REMARK  155  A    between atoms: _352  and  _353
REMARK  156  A    between atoms: _352  and  _355
REMARK  157  A    between atoms: _355  and  _356
REMARK  158  A    between atoms: _358  and  _360
REMARK  159  A    between atoms: _360  and  _361
REMARK  160  A    between atoms: _360  and  _363
REMARK  161  A    between atoms: _363  and  _364
REMARK  162  A    between atoms: _366  and  _368
REMARK  163  A    between atoms: _368  and  _369
REMARK  164  A    between atoms: _368  and  _371
REMARK  165  A    between atoms: _371  and  _372
REMARK  166  A    between atoms: _378  and  _380
REMARK  167  A    between atoms: _380  and  _381
REMARK  168  A    between atoms: _380  and  _383
REMARK  169  A    between atoms: _383  and  _384
REMARK  170  A    between atoms: _389  and  _391
REMARK  171  A    between atoms: _391  and  _392
REMARK  172  A    between atoms: _391  and  _394
REMARK  173  A    between atoms: _394  and  _395
REMARK  174  A    between atoms: _400  and  _402
REMARK  175  A    between atoms: _402  and  _403
REMARK  176  A    between atoms: _402  and  _405
REMARK  177  A    between atoms: _405  and  _406
REMARK  178  A    between atoms: _411  and  _413
REMARK  179  A    between atoms: _413  and  _414
REMARK  180  A    between atoms: _413  and  _416
REMARK  181  A    between atoms: _416  and  _417
REMARK  182  A    between atoms: _420  and  _422
REMARK  183  A    between atoms: _422  and  _423
REMARK  184  A    between atoms: _425  and  _427
REMARK  185  A    between atoms: _427  and  _428
REMARK  186  A    between atoms: _431  and  _433
REMARK  187  A    between atoms: _433  and  _434
REMARK  188  A    between atoms: _433  and  _436
REMARK  189  A    between atoms: _436  and  _437
REMARK  190  A    between atoms: _443  and  _445
REMARK  191  A    between atoms: _445  and  _446
REMARK  192  A    between atoms: _445  and  _448
REMARK  193  A    between atoms: _448  and  _449
REMARK  194  A    between atoms: _451  and  _453
REMARK  195  A    between atoms: _453  and  _454
REMARK  196  A    between atoms: _456  and  _458
REMARK  197  A    between atoms: _458  and  _459
REMARK  198  A    between atoms: _458  and  _461
REMARK  199  A    between atoms: _461  and  _462
REMARK  200  A    between atoms: _465  and  _467
REMARK  201  A    between atoms: _467  and  _468
REMARK  202  A    between atoms: _467  and  _470
REMARK  203  A    between atoms: _470  and  _471
REMARK  204  A    between atoms: _474  and  _476
REMARK  205  A    between atoms: _476  and  _477
REMARK  206  A    between atoms: _480  and  _482
REMARK  207  A    between atoms: _482  and  _483
REMARK  208  A    between atoms: _486  and  _488
REMARK  209  A    between atoms: _488  and  _489
REMARK  210  A    between atoms: _491  and  _493
REMARK  211  A    between atoms: _493  and  _494
REMARK  212  A    between atoms: _493  and  _496
REMARK  213  A    between atoms: _496  and  _497
REMARK                            x       y       z     vdW  Elec       q    Type
REMARK                         _______ _______ _______ _____ _____    ______ ____
ROOT
ATOM      1  CA  LEU A   1       6.820  33.245   3.456  0.00  0.00    +0.133 C 
ENDROOT
BRANCH   1   2
ATOM      2  N   LEU A   1       7.960  33.972   4.008  0.00  0.00    -0.239 NA
ATOM      3  H   LEU A   1       8.901  33.849   3.584  0.00  0.00    +0.142 HD
ENDBRANCH   1   2
BRANCH   1   4
ATOM      4  C   LEU A   1       6.285  32.142   4.372  0.00  0.00    +0.224 C 
ATOM      5  O   LEU A   1       5.191  31.631   4.146  0.00  0.00    -0.287 OA
ENDBRANCH   1   4
BRANCH   1   6
ATOM      6  CB  LEU A   1       7.173  32.655   2.083  0.00  0.00    +0.025 C 
BRANCH   6   7
ATOM      7  CG  LEU A   1       7.524  33.634   0.952  0.00  0.00    +0.002 C 
ATOM      8  CD2 LEU A   1       6.423  34.675   0.806  0.00  0.00    +0.000 C 
ATOM      9  CD1 LEU A   1       7.694  32.876  -0.349  0.00  0.00    +0.000 C 
ENDBRANCH   6   7
ENDBRANCH   1   6
TORSDOF 4
REMARK  Name = ../refined-set-2016/2ews/2ews_pocket.pdb
REMARK  213 active torsions:
REMARK  status: ('A' for Active; 'I' for Inactive)
REMARK    1  A    between atoms: _1  and  _3
REMARK    2  A    between atoms: _3  and  _4
REMARK    3  A    between atoms: _3  and  _6
REMARK    4  A    between atoms: _6  and  _7
REMARK    5  A    between atoms: _10  and  _12
REMARK    6  A    between atoms: _12  and  _13
REMARK    7  A    between atoms: _16  and  _18
REMARK    8  A    between atoms: _18  and  _19
REMARK    9  A    between atoms: _21  and  _23
REMARK   10  A    between atoms: _23  and  _24
REMARK   11  A    between atoms: _26  and  _28
REMARK   12  A    between atoms: _28  and  _29
REMARK   13  A    between atoms: _28  and  _31
REMARK   14  A    between atoms: _31  and  _32
REMARK   15  A    between atoms: _35  and  _37
REMARK   16  A    between atoms: _37  and  _38
REMARK   17  A    between atoms: _37  and  _40
REMARK   18  A    between atoms: _40  and  _41
REMARK   19  A    between atoms: _44  and  _46
REMARK   20  A    between atoms: _46  and  _47
REMARK   21  A    between atoms: _46  and  _49
REMARK   22  A    between atoms: _49  and  _50
REMARK   23  A    between atoms: _53  and  _55
REMARK   24  A    between atoms: _55  and  _56
REMARK   25  A    between atoms: _55  and  _58
REMARK   26  A    between atoms: _58  and  _59
REMARK   27  A    between atoms: _59  and  _60
REMARK   28  A    between atoms: _60  and  _61
REMARK   29  A    between atoms: _61  and  _62
REMARK   30  A    between atoms: _66  and  _68
REMARK   31  A    between atoms: _68  and  _69
REMARK   32  A    between atoms: _68  and  _71
REMARK   33  A    between atoms: _71  and  _72
REMARK   34  A    between atoms: _75  and  _77
REMARK   35  A    between atoms: _77  and  _78
REMARK   36  A    between atoms: _77  and  _80
REMARK   37  A    between atoms: _80  and  _81
REMARK   38  A    between atoms: _81  and  _82
REMARK   39  A    between atoms: _85  and  _87
REMARK   40  A    between atoms: _87  and  _88
REMARK   41  A    between atoms: _87  and  _90
REMARK   42  A    between atoms: _90  and  _91
REMARK   43  A    between atoms: _94  and  _96
REMARK   44  A    between atoms: _96  and  _97
REMARK   45  A    between atoms: _96  and  _99
REMARK   46  A    between atoms: _99  and  _100
REMARK   47  A    between atoms: _103  and  _105
REMARK   48  A    between atoms: _105  and  _106
REMARK   49  A    between atoms: _105  and  _108
REMARK   50  A    between atoms: _108  and  _109
REMARK   51  A    between atoms: _109  and  _110
REMARK   52  A    between atoms: _110  and  _111
REMARK   53  A    between atoms: _111  and  _112
REMARK   54  A    between atoms: _116  and  _118
REMARK   55  A    between atoms: _118  and  _119
REMARK   56  A    between atoms: _118  and  _121
REMARK   57  A    between atoms: _121  and  _122
REMARK   58  A    between atoms: _125  and  _127
REMARK   59  A    between atoms: _127  and  _128
REMARK   60  A    between atoms: _130  and  _132
REMARK   61  A    between atoms: _132  and  _133
REMARK   62  A    between atoms: _135  and  _137
REMARK   63  A    between atoms: _137  and  _138
REMARK   64  A    between atoms: _137  and  _140
REMARK   65  A    between atoms: _140  and  _141
REMARK   66  A    between atoms: _146  and  _148
REMARK   67  A    between atoms: _148  and  _149
REMARK   68  A    between atoms: _148  and  _151
REMARK   69  A    between atoms: _151  and  _152
REMARK   70  A    between atoms: _152  and  _153
REMARK   71  A    between atoms: _156  and  _158
REMARK   72  A    between atoms: _158  and  _159
REMARK   73  A    between atoms: _158  and  _161
REMARK   74  A    between atoms: _161  and  _162
REMARK   75  A    between atoms: _168  and  _170
REMARK   76  A    between atoms: _170  and  _171
REMARK   77  A    between atoms: _170  and  _173
REMARK   78  A    between atoms: _173  and  _174
REMARK   79  A    between atoms: _179  and  _181
REMARK   80  A    between atoms: _181  and  _182
REMARK   81  A    between atoms: _181  and  _184
REMARK   82  A    between atoms: _187  and  _189
REMARK   83  A    between atoms: _189  and  _190
REMARK   84  A    between atoms: _192  and  _194
REMARK   85  A    between atoms: _194  and  _195
REMARK   86  A    between atoms: _194  and  _197
REMARK   87  A    between atoms: _197  and  _198
REMARK   88  A    between atoms: _201  and  _203
REMARK   89  A    between atoms: _203  and  _204
REMARK   90  A    between atoms: _206  and  _208
REMARK   91  A    between atoms: _208  and  _209
REMARK   92  A    between atoms: _208  and  _211
REMARK   93  A    between atoms: _211  and  _212
REMARK   94  A    between atoms: _215  and  _217
REMARK   95  A    between atoms: _217  and  _218
REMARK   96  A    between atoms: _217  and  _220
REMARK   97  A    between atoms: _220  and  _221
REMARK   98  A    between atoms: _223  and  _225
REMARK   99  A    between atoms: _225  and  _226
REMARK  100  A    between atoms: _228  and  _230
REMARK  101  A    between atoms: _230  and  _231
REMARK  102  A    between atoms: _233  and  _235
REMARK  103  A    between atoms: _235  and  _236
REMARK  104  A    between atoms: _238  and  _240
REMARK  105  A    between atoms: _240  and  _241
REMARK  106  A    between atoms: _240  and  _243
REMARK  107  A    between atoms: _243  and  _244
REMARK  108  A    between atoms: _244  and  _245
REMARK  109  A    between atoms: _247  and  _249
REMARK  110  A    between atoms: _249  and  _250
REMARK  111  A    between atoms: _249  and  _252
REMARK  112  A    between atoms: _252  and  _253
REMARK  113  A    between atoms: _256  and  _258
REMARK  114  A    between atoms: _258  and  _259
REMARK  115  A    between atoms: _258  and  _261
REMARK  116  A    between atoms: _261  and  _262
REMARK  117  A    between atoms: _262  and  _263
REMARK  118  A    between atoms: _268  and  _270
REMARK  119  A    between atoms: _270  and  _271
REMARK  120  A    between atoms: _273  and  _275
REMARK  121  A    between atoms: _275  and  _276
REMARK  122  A    between atoms: _275  and  _278
REMARK  123  A    between atoms: _278  and  _279
REMARK  124  A    between atoms: _282  and  _284
REMARK  125  A    between atoms: _284  and  _285
REMARK  126  A    between atoms: _284  and  _287
REMARK  127  A    between atoms: _287  and  _288
REMARK  128  A    between atoms: _291  and  _293
REMARK  129  A    between atoms: _293  and  _294
REMARK  130  A    between atoms: _293  and  _296
REMARK  131  A    between atoms: _296  and  _297
REMARK  132  A    between atoms: _302  and  _303
REMARK  133  A    between atoms: _305  and  _307
REMARK  134  A    between atoms: _307  and  _308
REMARK  135  A    between atoms: _307  and  _310
REMARK  136  A    between atoms: _310  and  _311
REMARK  137  A    between atoms: _311  and  _312
REMARK  138  A    between atoms: _312  and  _313
REMARK  139  A    between atoms: _313  and  _314
REMARK  140  A    between atoms: _318  and  _320
REMARK  141  A    between atoms: _320  and  _321
REMARK  142  A    between atoms: _320  and  _323
REMARK  143  A    between atoms: _323  and  _324
REMARK  144  A    between atoms: _327  and  _329
REMARK  145  A    between atoms: _329  and  _330
REMARK  146  A    between atoms: _329  and  _332
REMARK  147  A    between atoms: _332  and  _333
REMARK  148  A    between atoms: _336  and  _338
REMARK  149  A    between atoms: _338  and  _339
REMARK  150  A    between atoms: _338  and  _341
REMARK  151  A    between atoms: _341  and  _342
REMARK  152  A    between atoms: _345  and  _347
REMARK  153  A    between atoms: _347  and  _348
REMARK  154  A    between atoms: _350  and  _352
REMARK  155  A    between atoms: _352  and  _353
REMARK  156  A    between atoms: _352  and  _355
REMARK  157  A    between atoms: _355  and  _356
REMARK  158  A    between atoms: _358  and  _360
REMARK  159  A    between atoms: _360  and  _361
REMARK  160  A    between atoms: _360  and  _363
REMARK  161  A    between atoms: _363  and  _364
REMARK  162  A    between atoms: _366  and  _368
REMARK  163  A    between atoms: _368  and  _369
REMARK  164  A    between atoms: _368  and  _371
REMARK  165  A    between atoms: _371  and  _372
REMARK  166  A    between atoms: _378  and  _380
REMARK  167  A    between atoms: _380  and  _381
REMARK  168  A    between atoms: _380  and  _383
REMARK  169  A    between atoms: _383  and  _384
REMARK  170  A    between atoms: _389  and  _391
REMARK  171  A    between atoms: _391  and  _392
REMARK  172  A    between atoms: _391  and  _394
REMARK  173  A    between atoms: _394  and  _395
REMARK  174  A    between atoms: _400  and  _402
REMARK  175  A    between atoms: _402  and  _403
REMARK  176  A    between atoms: _402  and  _405
REMARK  177  A    between atoms: _405  and  _406
REMARK  178  A    between atoms: _411  and  _413
REMARK  179  A    between atoms: _413  and  _414
REMARK  180  A    between atoms: _413  and  _416
REMARK  181  A    between atoms: _416  and  _417
REMARK  182  A    between atoms: _420  and  _422
REMARK  183  A    between atoms: _422  and  _423
REMARK  184  A    between atoms: _425  and  _427
REMARK  185  A    between atoms: _427  and  _428
REMARK  186  A    between atoms: _431  and  _433
REMARK  187  A    between atoms: _433  and  _434
REMARK  188  A    between atoms: _433  and  _436
REMARK  189  A    between atoms: _436  and  _437
REMARK  190  A    between atoms: _443  and  _445
REMARK  191  A    between atoms: _445  and  _446
REMARK  192  A    between atoms: _445  and  _448
REMARK  193  A    between atoms: _448  and  _449
REMARK  194  A    between atoms: _451  and  _453
REMARK  195  A    between atoms: _453  and  _454
REMARK  196  A    between atoms: _456  and  _458
REMARK  197  A    between atoms: _458  and  _459
REMARK  198  A    between atoms: _458  and  _461
REMARK  199  A    between atoms: _461  and  _462
REMARK  200  A    between atoms: _465  and  _467
REMARK  201  A    between atoms: _467  and  _468
REMARK  202  A    between atoms: _467  and  _470
REMARK  203  A    between atoms: _470  and  _471
REMARK  204  A    between atoms: _474  and  _476
REMARK  205  A    between atoms: _476  and  _477
REMARK  206  A    between atoms: _480  and  _482
REMARK  207  A    between atoms: _482  and  _483
REMARK  208  A    between atoms: _486  and  _488
REMARK  209  A    between atoms: _488  and  _489
REMARK  210  A    between atoms: _491  and  _493
REMARK  211  A    between atoms: _493  and  _494
REMARK  212  A    between atoms: _493  and  _496
REMARK  213  A    between atoms: _496  and  _497
REMARK                            x       y       z     vdW  Elec       q    Type
REMARK                         _______ _______ _______ _____ _____    ______ ____
ROOT
ATOM      1 MG   UNL     1      19.915  23.355  -3.369  0.00  0.00    +0.000 Mg
ATOM      2  O   UNL     1      20.648  25.336  -4.677  0.00  0.00    +0.000 OA
ATOM      3  O   UNL     1      19.838  22.287  -5.575  0.00  0.00    +0.000 OA
ENDROOT
TORSDOF 0
REMARK  Name = ../refined-set-2016/2ews/2ews_pocket.pdb
REMARK  213 active torsions:
REMARK  status: ('A' for Active; 'I' for Inactive)
REMARK    1  A    between atoms: _1  and  _3
REMARK    2  A    between atoms: _3  and  _4
REMARK    3  A    between atoms: _3  and  _6
REMARK    4  A    between atoms: _6  and  _7
REMARK    5  A    between atoms: _10  and  _12
REMARK    6  A    between atoms: _12  and  _13
REMARK    7  A    between atoms: _16  and  _18
REMARK    8  A    between atoms: _18  and  _19
REMARK    9  A    between atoms: _21  and  _23
REMARK   10  A    between atoms: _23  and  _24
REMARK   11  A    between atoms: _26  and  _28
REMARK   12  A    between atoms: _28  and  _29
REMARK   13  A    between atoms: _28  and  _31
REMARK   14  A    between atoms: _31  and  _32
REMARK   15  A    between atoms: _35  and  _37
REMARK   16  A    between atoms: _37  and  _38
REMARK   17  A    between atoms: _37  and  _40
REMARK   18  A    between atoms: _40  and  _41
REMARK   19  A    between atoms: _44  and  _46
REMARK   20  A    between atoms: _46  and  _47
REMARK   21  A    between atoms: _46  and  _49
REMARK   22  A    between atoms: _49  and  _50
REMARK   23  A    between atoms: _53  and  _55
REMARK   24  A    between atoms: _55  and  _56
REMARK   25  A    between atoms: _55  and  _58
REMARK   26  A    between atoms: _58  and  _59
REMARK   27  A    between atoms: _59  and  _60
REMARK   28  A    between atoms: _60  and  _61
REMARK   29  A    between atoms: _61  and  _62
REMARK   30  A    between atoms: _66  and  _68
REMARK   31  A    between atoms: _68  and  _69
REMARK   32  A    between atoms: _68  and  _71
REMARK   33  A    between atoms: _71  and  _72
REMARK   34  A    between atoms: _75  and  _77
REMARK   35  A    between atoms: _77  and  _78
REMARK   36  A    between atoms: _77  and  _80
REMARK   37  A    between atoms: _80  and  _81
REMARK   38  A    between atoms: _81  and  _82
REMARK   39  A    between atoms: _85  and  _87
REMARK   40  A    between atoms: _87  and  _88
REMARK   41  A    between atoms: _87  and  _90
REMARK   42  A    between atoms: _90  and  _91
REMARK   43  A    between atoms: _94  and  _96
REMARK   44  A    between atoms: _96  and  _97
REMARK   45  A    between atoms: _96  and  _99
REMARK   46  A    between atoms: _99  and  _100
REMARK   47  A    between atoms: _103  and  _105
REMARK   48  A    between atoms: _105  and  _106
REMARK   49  A    between atoms: _105  and  _108
REMARK   50  A    between atoms: _108  and  _109
REMARK   51  A    between atoms: _109  and  _110
REMARK   52  A    between atoms: _110  and  _111
REMARK   53  A    between atoms: _111  and  _112
REMARK   54  A    between atoms: _116  and  _118
REMARK   55  A    between atoms: _118  and  _119
REMARK   56  A    between atoms: _118  and  _121
REMARK   57  A    between atoms: _121  and  _122
REMARK   58  A    between atoms: _125  and  _127
REMARK   59  A    between atoms: _127  and  _128
REMARK   60  A    between atoms: _130  and  _132
REMARK   61  A    between atoms: _132  and  _133
REMARK   62  A    between atoms: _135  and  _137
REMARK   63  A    between atoms: _137  and  _138
REMARK   64  A    between atoms: _137  and  _140
REMARK   65  A    between atoms: _140  and  _141
REMARK   66  A    between atoms: _146  and  _148
REMARK   67  A    between atoms: _148  and  _149
REMARK   68  A    between atoms: _148  and  _151
REMARK   69  A    between atoms: _151  and  _152
REMARK   70  A    between atoms: _152  and  _153
REMARK   71  A    between atoms: _156  and  _158
REMARK   72  A    between atoms: _158  and  _159
REMARK   73  A    between atoms: _158  and  _161
REMARK   74  A    between atoms: _161  and  _162
REMARK   75  A    between atoms: _168  and  _170
REMARK   76  A    between atoms: _170  and  _171
REMARK   77  A    between atoms: _170  and  _173
REMARK   78  A    between atoms: _173  and  _174
REMARK   79  A    between atoms: _179  and  _181
REMARK   80  A    between atoms: _181  and  _182
REMARK   81  A    between atoms: _181  and  _184
REMARK   82  A    between atoms: _187  and  _189
REMARK   83  A    between atoms: _189  and  _190
REMARK   84  A    between atoms: _192  and  _194
REMARK   85  A    between atoms: _194  and  _195
REMARK   86  A    between atoms: _194  and  _197
REMARK   87  A    between atoms: _197  and  _198
REMARK   88  A    between atoms: _201  and  _203
REMARK   89  A    between atoms: _203  and  _204
REMARK   90  A    between atoms: _206  and  _208
REMARK   91  A    between atoms: _208  and  _209
REMARK   92  A    between atoms: _208  and  _211
REMARK   93  A    between atoms: _211  and  _212
REMARK   94  A    between atoms: _215  and  _217
REMARK   95  A    between atoms: _217  and  _218
REMARK   96  A    between atoms: _217  and  _220
REMARK   97  A    between atoms: _220  and  _221
REMARK   98  A    between atoms: _223  and  _225
REMARK   99  A    between atoms: _225  and  _226
REMARK  100  A    between atoms: _228  and  _230
REMARK  101  A    between atoms: _230  and  _231
REMARK  102  A    between atoms: _233  and  _235
REMARK  103  A    between atoms: _235  and  _236
REMARK  104  A    between atoms: _238  and  _240
REMARK  105  A    between atoms: _240  and  _241
REMARK  106  A    between atoms: _240  and  _243
REMARK  107  A    between atoms: _243  and  _244
REMARK  108  A    between atoms: _244  and  _245
REMARK  109  A    between atoms: _247  and  _249
REMARK  110  A    between atoms: _249  and  _250
REMARK  111  A    between atoms: _249  and  _252
REMARK  112  A    between atoms: _252  and  _253
REMARK  113  A    between atoms: _256  and  _258
REMARK  114  A    between atoms: _258  and  _259
REMARK  115  A    between atoms: _258  and  _261
REMARK  116  A    between atoms: _261  and  _262
REMARK  117  A    between atoms: _262  and  _263
REMARK  118  A    between atoms: _268  and  _270
REMARK  119  A    between atoms: _270  and  _271
REMARK  120  A    between atoms: _273  and  _275
REMARK  121  A    between atoms: _275  and  _276
REMARK  122  A    between atoms: _275  and  _278
REMARK  123  A    between atoms: _278  and  _279
REMARK  124  A    between atoms: _282  and  _284
REMARK  125  A    between atoms: _284  and  _285
REMARK  126  A    between atoms: _284  and  _287
REMARK  127  A    between atoms: _287  and  _288
REMARK  128  A    between atoms: _291  and  _293
REMARK  129  A    between atoms: _293  and  _294
REMARK  130  A    between atoms: _293  and  _296
REMARK  131  A    between atoms: _296  and  _297
REMARK  132  A    between atoms: _302  and  _303
REMARK  133  A    between atoms: _305  and  _307
REMARK  134  A    between atoms: _307  and  _308
REMARK  135  A    between atoms: _307  and  _310
REMARK  136  A    between atoms: _310  and  _311
REMARK  137  A    between atoms: _311  and  _312
REMARK  138  A    between atoms: _312  and  _313
REMARK  139  A    between atoms: _313  and  _314
REMARK  140  A    between atoms: _318  and  _320
REMARK  141  A    between atoms: _320  and  _321
REMARK  142  A    between atoms: _320  and  _323
REMARK  143  A    between atoms: _323  and  _324
REMARK  144  A    between atoms: _327  and  _329
REMARK  145  A    between atoms: _329  and  _330
REMARK  146  A    between atoms: _329  and  _332
REMARK  147  A    between atoms: _332  and  _333
REMARK  148  A    between atoms: _336  and  _338
REMARK  149  A    between atoms: _338  and  _339
REMARK  150  A    between atoms: _338  and  _341
REMARK  151  A    between atoms: _341  and  _342
REMARK  152  A    between atoms: _345  and  _347
REMARK  153  A    between atoms: _347  and  _348
REMARK  154  A    between atoms: _350  and  _352
REMARK  155  A    between atoms: _352  and  _353
REMARK  156  A    between atoms: _352  and  _355
REMARK  157  A    between atoms: _355  and  _356
REMARK  158  A    between atoms: _358  and  _360
REMARK  159  A    between atoms: _360  and  _361
REMARK  160  A    between atoms: _360  and  _363
REMARK  161  A    between atoms: _363  and  _364
REMARK  162  A    between atoms: _366  and  _368
REMARK  163  A    between atoms: _368  and  _369
REMARK  164  A    between atoms: _368  and  _371
REMARK  165  A    between atoms: _371  and  _372
REMARK  166  A    between atoms: _378  and  _380
REMARK  167  A    between atoms: _380  and  _381
REMARK  168  A    between atoms: _380  and  _383
REMARK  169  A    between atoms: _383  and  _384
REMARK  170  A    between atoms: _389  and  _391
REMARK  171  A    between atoms: _391  and  _392
REMARK  172  A    between atoms: _391  and  _394
REMARK  173  A    between atoms: _394  and  _395
REMARK  174  A    between atoms: _400  and  _402
REMARK  175  A    between atoms: _402  and  _403
REMARK  176  A    between atoms: _402  and  _405
REMARK  177  A    between atoms: _405  and  _406
REMARK  178  A    between atoms: _411  and  _413
REMARK  179  A    between atoms: _413  and  _414
REMARK  180  A    between atoms: _413  and  _416
REMARK  181  A    between atoms: _416  and  _417
REMARK  182  A    between atoms: _420  and  _422
REMARK  183  A    between atoms: _422  and  _423
REMARK  184  A    between atoms: _425  and  _427
REMARK  185  A    between atoms: _427  and  _428
REMARK  186  A    between atoms: _431  and  _433
REMARK  187  A    between atoms: _433  and  _434
REMARK  188  A    between atoms: _433  and  _436
REMARK  189  A    between atoms: _436  and  _437
REMARK  190  A    between atoms: _443  and  _445
REMARK  191  A    between atoms: _445  and  _446
REMARK  192  A    between atoms: _445  and  _448
REMARK  193  A    between atoms: _448  and  _449
REMARK  194  A    between atoms: _451  and  _453
REMARK  195  A    between atoms: _453  and  _454
REMARK  196  A    between atoms: _456  and  _458
REMARK  197  A    between atoms: _458  and  _459
REMARK  198  A    between atoms: _458  and  _461
REMARK  199  A    between atoms: _461  and  _462
REMARK  200  A    between atoms: _465  and  _467
REMARK  201  A    between atoms: _467  and  _468
REMARK  202  A    between atoms: _467  and  _470
REMARK  203  A    between atoms: _470  and  _471
REMARK  204  A    between atoms: _474  and  _476
REMARK  205  A    between atoms: _476  and  _477
REMARK  206  A    between atoms: _480  and  _482
REMARK  207  A    between atoms: _482  and  _483
REMARK  208  A    between atoms: _486  and  _488
REMARK  209  A    between atoms: _488  and  _489
REMARK  210  A    between atoms: _491  and  _493
REMARK  211  A    between atoms: _493  and  _494
REMARK  212  A    between atoms: _493  and  _496
REMARK  213  A    between atoms: _496  and  _497
REMARK                            x       y       z     vdW  Elec       q    Type
REMARK                         _______ _______ _______ _____ _____    ______ ____
ROOT
ATOM      1  O   HOH     1      20.015  19.885  -8.829  0.00  0.00    +0.000 OA
ENDROOT
TORSDOF 0
REMARK  Name = ../refined-set-2016/2ews/2ews_pocket.pdb
REMARK  213 active torsions:
REMARK  status: ('A' for Active; 'I' for Inactive)
REMARK    1  A    between atoms: _1  and  _3
REMARK    2  A    between atoms: _3  and  _4
REMARK    3  A    between atoms: _3  and  _6
REMARK    4  A    between atoms: _6  and  _7
REMARK    5  A    between atoms: _10  and  _12
REMARK    6  A    between atoms: _12  and  _13
REMARK    7  A    between atoms: _16  and  _18
REMARK    8  A    between atoms: _18  and  _19
REMARK    9  A    between atoms: _21  and  _23
REMARK   10  A    between atoms: _23  and  _24
REMARK   11  A    between atoms: _26  and  _28
REMARK   12  A    between atoms: _28  and  _29
REMARK   13  A    between atoms: _28  and  _31
REMARK   14  A    between atoms: _31  and  _32
REMARK   15  A    between atoms: _35  and  _37
REMARK   16  A    between atoms: _37  and  _38
REMARK   17  A    between atoms: _37  and  _40
REMARK   18  A    between atoms: _40  and  _41
REMARK   19  A    between atoms: _44  and  _46
REMARK   20  A    between atoms: _46  and  _47
REMARK   21  A    between atoms: _46  and  _49
REMARK   22  A    between atoms: _49  and  _50
REMARK   23  A    between atoms: _53  and  _55
REMARK   24  A    between atoms: _55  and  _56
REMARK   25  A    between atoms: _55  and  _58
REMARK   26  A    between atoms: _58  and  _59
REMARK   27  A    between atoms: _59  and  _60
REMARK   28  A    between atoms: _60  and  _61
REMARK   29  A    between atoms: _61  and  _62
REMARK   30  A    between atoms: _66  and  _68
REMARK   31  A    between atoms: _68  and  _69
REMARK   32  A    between atoms: _68  and  _71
REMARK   33  A    between atoms: _71  and  _72
REMARK   34  A    between atoms: _75  and  _77
REMARK   35  A    between atoms: _77  and  _78
REMARK   36  A    between atoms: _77  and  _80
REMARK   37  A    between atoms: _80  and  _81
REMARK   38  A    between atoms: _81  and  _82
REMARK   39  A    between atoms: _85  and  _87
REMARK   40  A    between atoms: _87  and  _88
REMARK   41  A    between atoms: _87  and  _90
REMARK   42  A    between atoms: _90  and  _91
REMARK   43  A    between atoms: _94  and  _96
REMARK   44  A    between atoms: _96  and  _97
REMARK   45  A    between atoms: _96  and  _99
REMARK   46  A    between atoms: _99  and  _100
REMARK   47  A    between atoms: _103  and  _105
REMARK   48  A    between atoms: _105  and  _106
REMARK   49  A    between atoms: _105  and  _108
REMARK   50  A    between atoms: _108  and  _109
REMARK   51  A    between atoms: _109  and  _110
REMARK   52  A    between atoms: _110  and  _111
REMARK   53  A    between atoms: _111  and  _112
REMARK   54  A    between atoms: _116  and  _118
REMARK   55  A    between atoms: _118  and  _119
REMARK   56  A    between atoms: _118  and  _121
REMARK   57  A    between atoms: _121  and  _122
REMARK   58  A    between atoms: _125  and  _127
REMARK   59  A    between atoms: _127  and  _128
REMARK   60  A    between atoms: _130  and  _132
REMARK   61  A    between atoms: _132  and  _133
REMARK   62  A    between atoms: _135  and  _137
REMARK   63  A    between atoms: _137  and  _138
REMARK   64  A    between atoms: _137  and  _140
REMARK   65  A    between atoms: _140  and  _141
REMARK   66  A    between atoms: _146  and  _148
REMARK   67  A    between atoms: _148  and  _149
REMARK   68  A    between atoms: _148  and  _151
REMARK   69  A    between atoms: _151  and  _152
REMARK   70  A    between atoms: _152  and  _153
REMARK   71  A    between atoms: _156  and  _158
REMARK   72  A    between atoms: _158  and  _159
REMARK   73  A    between atoms: _158  and  _161
REMARK   74  A    between atoms: _161  and  _162
REMARK   75  A    between atoms: _168  and  _170
REMARK   76  A    between atoms: _170  and  _171
REMARK   77  A    between atoms: _170  and  _173
REMARK   78  A    between atoms: _173  and  _174
REMARK   79  A    between atoms: _179  and  _181
REMARK   80  A    between atoms: _181  and  _182
REMARK   81  A    between atoms: _181  and  _184
REMARK   82  A    between atoms: _187  and  _189
REMARK   83  A    between atoms: _189  and  _190
REMARK   84  A    between atoms: _192  and  _194
REMARK   85  A    between atoms: _194  and  _195
REMARK   86  A    between atoms: _194  and  _197
REMARK   87  A    between atoms: _197  and  _198
REMARK   88  A    between atoms: _201  and  _203
REMARK   89  A    between atoms: _203  and  _204
REMARK   90  A    between atoms: _206  and  _208
REMARK   91  A    between atoms: _208  and  _209
REMARK   92  A    between atoms: _208  and  _211
REMARK   93  A    between atoms: _211  and  _212
REMARK   94  A    between atoms: _215  and  _217
REMARK   95  A    between atoms: _217  and  _218
REMARK   96  A    between atoms: _217  and  _220
REMARK   97  A    between atoms: _220  and  _221
REMARK   98  A    between atoms: _223  and  _225
REMARK   99  A    between atoms: _225  and  _226
REMARK  100  A    between atoms: _228  and  _230
REMARK  101  A    between atoms: _230  and  _231
REMARK  102  A    between atoms: _233  and  _235
REMARK  103  A    between atoms: _235  and  _236
REMARK  104  A    between atoms: _238  and  _240
REMARK  105  A    between atoms: _240  and  _241
REMARK  106  A    between atoms: _240  and  _243
REMARK  107  A    between atoms: _243  and  _244
REMARK  108  A    between atoms: _244  and  _245
REMARK  109  A    between atoms: _247  and  _249
REMARK  110  A    between atoms: _249  and  _250
REMARK  111  A    between atoms: _249  and  _252
REMARK  112  A    between atoms: _252  and  _253
REMARK  113  A    between atoms: _256  and  _258
REMARK  114  A    between atoms: _258  and  _259
REMARK  115  A    between atoms: _258  and  _261
REMARK  116  A    between atoms: _261  and  _262
REMARK  117  A    between atoms: _262  and  _263
REMARK  118  A    between atoms: _268  and  _270
REMARK  119  A    between atoms: _270  and  _271
REMARK  120  A    between atoms: _273  and  _275
REMARK  121  A    between atoms: _275  and  _276
REMARK  122  A    between atoms: _275  and  _278
REMARK  123  A    between atoms: _278  and  _279
REMARK  124  A    between atoms: _282  and  _284
REMARK  125  A    between atoms: _284  and  _285
REMARK  126  A    between atoms: _284  and  _287
REMARK  127  A    between atoms: _287  and  _288
REMARK  128  A    between atoms: _291  and  _293
REMARK  129  A    between atoms: _293  and  _294
REMARK  130  A    between atoms: _293  and  _296
REMARK  131  A    between atoms: _296  and  _297
REMARK  132  A    between atoms: _302  and  _303
REMARK  133  A    between atoms: _305  and  _307
REMARK  134  A    between atoms: _307  and  _308
REMARK  135  A    between atoms: _307  and  _310
REMARK  136  A    between atoms: _310  and  _311
REMARK  137  A    between atoms: _311  and  _312
REMARK  138  A    between atoms: _312  and  _313
REMARK  139  A    between atoms: _313  and  _314
REMARK  140  A    between atoms: _318  and  _320
REMARK  141  A    between atoms: _320  and  _321
REMARK  142  A    between atoms: _320  and  _323
REMARK  143  A    between atoms: _323  and  _324
REMARK  144  A    between atoms: _327  and  _329
REMARK  145  A    between atoms: _329  and  _330
REMARK  146  A    between atoms: _329  and  _332
REMARK  147  A    between atoms: _332  and  _333
REMARK  148  A    between atoms: _336  and  _338
REMARK  149  A    between atoms: _338  and  _339
REMARK  150  A    between atoms: _338  and  _341
REMARK  151  A    between atoms: _341  and  _342
REMARK  152  A    between atoms: _345  and  _347
REMARK  153  A    between atoms: _347  and  _348
REMARK  154  A    between atoms: _350  and  _352
REMARK  155  A    between atoms: _352  and  _353
REMARK  156  A    between atoms: _352  and  _355
REMARK  157  A    between atoms: _355  and  _356
REMARK  158  A    between atoms: _358  and  _360
REMARK  159  A    between atoms: _360  and  _361
REMARK  160  A    between atoms: _360  and  _363
REMARK  161  A    between atoms: _363  and  _364
REMARK  162  A    between atoms: _366  and  _368
REMARK  163  A    between atoms: _368  and  _369
REMARK  164  A    between atoms: _368  and  _371
REMARK  165  A    between atoms: _371  and  _372
REMARK  166  A    between atoms: _378  and  _380
REMARK  167  A    between atoms: _380  and  _381
REMARK  168  A    between atoms: _380  and  _383
REMARK  169  A    between atoms: _383  and  _384
REMARK  170  A    between atoms: _389  and  _391
REMARK  171  A    between atoms: _391  and  _392
REMARK  172  A    between atoms: _391  and  _394
REMARK  173  A    between atoms: _394  and  _395
REMARK  174  A    between atoms: _400  and  _402
REMARK  175  A    between atoms: _402  and  _403
REMARK  176  A    between atoms: _402  and  _405
REMARK  177  A    between atoms: _405  and  _406
REMARK  178  A    between atoms: _411  and  _413
REMARK  179  A    between atoms: _413  and  _414
REMARK  180  A    between atoms: _413  and  _416
REMARK  181  A    between atoms: _416  and  _417
REMARK  182  A    between atoms: _420  and  _422
REMARK  183  A    between atoms: _422  and  _423
REMARK  184  A    between atoms: _425  and  _427
REMARK  185  A    between atoms: _427  and  _428
REMARK  186  A    between atoms: _431  and  _433
REMARK  187  A    between atoms: _433  and  _434
REMARK  188  A    between atoms: _433  and  _436
REMARK  189  A    between atoms: _436  and  _437
REMARK  190  A    between atoms: _443  and  _445
REMARK  191  A    between atoms: _445  and  _446
REMARK  192  A    between atoms: _445  and  _448
REMARK  193  A    between atoms: _448  and  _449
REMARK  194  A    between atoms: _451  and  _453
REMARK  195  A    between atoms: _453  and  _454
REMARK  196  A    between atoms: _456  and  _458
REMARK  197  A    between atoms: _458  and  _459
REMARK  198  A    between atoms: _458  and  _461
REMARK  199  A    between atoms: _461  and  _462
REMARK  200  A    between atoms: _465  and  _467
REMARK  201  A    between atoms: _467  and  _468
REMARK  202  A    between atoms: _467  and  _470
REMARK  203  A    between atoms: _470  and  _471
REMARK  204  A    between atoms: _474  and  _476
REMARK  205  A    between atoms: _476  and  _477
REMARK  206  A    between atoms: _480  and  _482
REMARK  207  A    between atoms: _482  and  _483
REMARK  208  A    between atoms: _486  and  _488
REMARK  209  A    between atoms: _488  and  _489
REMARK  210  A    between atoms: _491  and  _493
REMARK  211  A    between atoms: _493  and  _494
REMARK  212  A    between atoms: _493  and  _496
REMARK  213  A    between atoms: _496  and  _497
REMARK                            x       y       z     vdW  Elec       q    Type
REMARK                         _______ _______ _______ _____ _____    ______ ____
ROOT
ATOM      1  O   HOH     1      20.289  20.881  -0.108  0.00  0.00    +0.000 OA
ENDROOT
TORSDOF 0
REMARK  Name = ../refined-set-2016/2ews/2ews_pocket.pdb
REMARK  213 active torsions:
REMARK  status: ('A' for Active; 'I' for Inactive)
REMARK    1  A    between atoms: _1  and  _3
REMARK    2  A    between atoms: _3  and  _4
REMARK    3  A    between atoms: _3  and  _6
REMARK    4  A    between atoms: _6  and  _7
REMARK    5  A    between atoms: _10  and  _12
REMARK    6  A    between atoms: _12  and  _13
REMARK    7  A    between atoms: _16  and  _18
REMARK    8  A    between atoms: _18  and  _19
REMARK    9  A    between atoms: _21  and  _23
REMARK   10  A    between atoms: _23  and  _24
REMARK   11  A    between atoms: _26  and  _28
REMARK   12  A    between atoms: _28  and  _29
REMARK   13  A    between atoms: _28  and  _31
REMARK   14  A    between atoms: _31  and  _32
REMARK   15  A    between atoms: _35  and  _37
REMARK   16  A    between atoms: _37  and  _38
REMARK   17  A    between atoms: _37  and  _40
REMARK   18  A    between atoms: _40  and  _41
REMARK   19  A    between atoms: _44  and  _46
REMARK   20  A    between atoms: _46  and  _47
REMARK   21  A    between atoms: _46  and  _49
REMARK   22  A    between atoms: _49  and  _50
REMARK   23  A    between atoms: _53  and  _55
REMARK   24  A    between atoms: _55  and  _56
REMARK   25  A    between atoms: _55  and  _58
REMARK   26  A    between atoms: _58  and  _59
REMARK   27  A    between atoms: _59  and  _60
REMARK   28  A    between atoms: _60  and  _61
REMARK   29  A    between atoms: _61  and  _62
REMARK   30  A    between atoms: _66  and  _68
REMARK   31  A    between atoms: _68  and  _69
REMARK   32  A    between atoms: _68  and  _71
REMARK   33  A    between atoms: _71  and  _72
REMARK   34  A    between atoms: _75  and  _77
REMARK   35  A    between atoms: _77  and  _78
REMARK   36  A    between atoms: _77  and  _80
REMARK   37  A    between atoms: _80  and  _81
REMARK   38  A    between atoms: _81  and  _82
REMARK   39  A    between atoms: _85  and  _87
REMARK   40  A    between atoms: _87  and  _88
REMARK   41  A    between atoms: _87  and  _90
REMARK   42  A    between atoms: _90  and  _91
REMARK   43  A    between atoms: _94  and  _96
REMARK   44  A    between atoms: _96  and  _97
REMARK   45  A    between atoms: _96  and  _99
REMARK   46  A    between atoms: _99  and  _100
REMARK   47  A    between atoms: _103  and  _105
REMARK   48  A    between atoms: _105  and  _106
REMARK   49  A    between atoms: _105  and  _108
REMARK   50  A    between atoms: _108  and  _109
REMARK   51  A    between atoms: _109  and  _110
REMARK   52  A    between atoms: _110  and  _111
REMARK   53  A    between atoms: _111  and  _112
REMARK   54  A    between atoms: _116  and  _118
REMARK   55  A    between atoms: _118  and  _119
REMARK   56  A    between atoms: _118  and  _121
REMARK   57  A    between atoms: _121  and  _122
REMARK   58  A    between atoms: _125  and  _127
REMARK   59  A    between atoms: _127  and  _128
REMARK   60  A    between atoms: _130  and  _132
REMARK   61  A    between atoms: _132  and  _133
REMARK   62  A    between atoms: _135  and  _137
REMARK   63  A    between atoms: _137  and  _138
REMARK   64  A    between atoms: _137  and  _140
REMARK   65  A    between atoms: _140  and  _141
REMARK   66  A    between atoms: _146  and  _148
REMARK   67  A    between atoms: _148  and  _149
REMARK   68  A    between atoms: _148  and  _151
REMARK   69  A    between atoms: _151  and  _152
REMARK   70  A    between atoms: _152  and  _153
REMARK   71  A    between atoms: _156  and  _158
REMARK   72  A    between atoms: _158  and  _159
REMARK   73  A    between atoms: _158  and  _161
REMARK   74  A    between atoms: _161  and  _162
REMARK   75  A    between atoms: _168  and  _170
REMARK   76  A    between atoms: _170  and  _171
REMARK   77  A    between atoms: _170  and  _173
REMARK   78  A    between atoms: _173  and  _174
REMARK   79  A    between atoms: _179  and  _181
REMARK   80  A    between atoms: _181  and  _182
REMARK   81  A    between atoms: _181  and  _184
REMARK   82  A    between atoms: _187  and  _189
REMARK   83  A    between atoms: _189  and  _190
REMARK   84  A    between atoms: _192  and  _194
REMARK   85  A    between atoms: _194  and  _195
REMARK   86  A    between atoms: _194  and  _197
REMARK   87  A    between atoms: _197  and  _198
REMARK   88  A    between atoms: _201  and  _203
REMARK   89  A    between atoms: _203  and  _204
REMARK   90  A    between atoms: _206  and  _208
REMARK   91  A    between atoms: _208  and  _209
REMARK   92  A    between atoms: _208  and  _211
REMARK   93  A    between atoms: _211  and  _212
REMARK   94  A    between atoms: _215  and  _217
REMARK   95  A    between atoms: _217  and  _218
REMARK   96  A    between atoms: _217  and  _220
REMARK   97  A    between atoms: _220  and  _221
REMARK   98  A    between atoms: _223  and  _225
REMARK   99  A    between atoms: _225  and  _226
REMARK  100  A    between atoms: _228  and  _230
REMARK  101  A    between atoms: _230  and  _231
REMARK  102  A    between atoms: _233  and  _235
REMARK  103  A    between atoms: _235  and  _236
REMARK  104  A    between atoms: _238  and  _240
REMARK  105  A    between atoms: _240  and  _241
REMARK  106  A    between atoms: _240  and  _243
REMARK  107  A    between atoms: _243  and  _244
REMARK  108  A    between atoms: _244  and  _245
REMARK  109  A    between atoms: _247  and  _249
REMARK  110  A    between atoms: _249  and  _250
REMARK  111  A    between atoms: _249  and  _252
REMARK  112  A    between atoms: _252  and  _253
REMARK  113  A    between atoms: _256  and  _258
REMARK  114  A    between atoms: _258  and  _259
REMARK  115  A    between atoms: _258  and  _261
REMARK  116  A    between atoms: _261  and  _262
REMARK  117  A    between atoms: _262  and  _263
REMARK  118  A    between atoms: _268  and  _270
REMARK  119  A    between atoms: _270  and  _271
REMARK  120  A    between atoms: _273  and  _275
REMARK  121  A    between atoms: _275  and  _276
REMARK  122  A    between atoms: _275  and  _278
REMARK  123  A    between atoms: _278  and  _279
REMARK  124  A    between atoms: _282  and  _284
REMARK  125  A    between atoms: _284  and  _285
REMARK  126  A    between atoms: _284  and  _287
REMARK  127  A    between atoms: _287  and  _288
REMARK  128  A    between atoms: _291  and  _293
REMARK  129  A    between atoms: _293  and  _294
REMARK  130  A    between atoms: _293  and  _296
REMARK  131  A    between atoms: _296  and  _297
REMARK  132  A    between atoms: _302  and  _303
REMARK  133  A    between atoms: _305  and  _307
REMARK  134  A    between atoms: _307  and  _308
REMARK  135  A    between atoms: _307  and  _310
REMARK  136  A    between atoms: _310  and  _311
REMARK  137  A    between atoms: _311  and  _312
REMARK  138  A    between atoms: _312  and  _313
REMARK  139  A    between atoms: _313  and  _314
REMARK  140  A    between atoms: _318  and  _320
REMARK  141  A    between atoms: _320  and  _321
REMARK  142  A    between atoms: _320  and  _323
REMARK  143  A    between atoms: _323  and  _324
REMARK  144  A    between atoms: _327  and  _329
REMARK  145  A    between atoms: _329  and  _330
REMARK  146  A    between atoms: _329  and  _332
REMARK  147  A    between atoms: _332  and  _333
REMARK  148  A    between atoms: _336  and  _338
REMARK  149  A    between atoms: _338  and  _339
REMARK  150  A    between atoms: _338  and  _341
REMARK  151  A    between atoms: _341  and  _342
REMARK  152  A    between atoms: _345  and  _347
REMARK  153  A    between atoms: _347  and  _348
REMARK  154  A    between atoms: _350  and  _352
REMARK  155  A    between atoms: _352  and  _353
REMARK  156  A    between atoms: _352  and  _355
REMARK  157  A    between atoms: _355  and  _356
REMARK  158  A    between atoms: _358  and  _360
REMARK  159  A    between atoms: _360  and  _361
REMARK  160  A    between atoms: _360  and  _363
REMARK  161  A    between atoms: _363  and  _364
REMARK  162  A    between atoms: _366  and  _368
REMARK  163  A    between atoms: _368  and  _369
REMARK  164  A    between atoms: _368  and  _371
REMARK  165  A    between atoms: _371  and  _372
REMARK  166  A    between atoms: _378  and  _380
REMARK  167  A    between atoms: _380  and  _381
REMARK  168  A    between atoms: _380  and  _383
REMARK  169  A    between atoms: _383  and  _384
REMARK  170  A    between atoms: _389  and  _391
REMARK  171  A    between atoms: _391  and  _392
REMARK  172  A    between atoms: _391  and  _394
REMARK  173  A    between atoms: _394  and  _395
REMARK  174  A    between atoms: _400  and  _402
REMARK  175  A    between atoms: _402  and  _403
REMARK  176  A    between atoms: _402  and  _405
REMARK  177  A    between atoms: _405  and  _406
REMARK  178  A    between atoms: _411  and  _413
REMARK  179  A    between atoms: _413  and  _414
REMARK  180  A    between atoms: _413  and  _416
REMARK  181  A    between atoms: _416  and  _417
REMARK  182  A    between atoms: _420  and  _422
REMARK  183  A    between atoms: _422  and  _423
REMARK  184  A    between atoms: _425  and  _427
REMARK  185  A    between atoms: _427  and  _428
REMARK  186  A    between atoms: _431  and  _433
REMARK  187  A    between atoms: _433  and  _434
REMARK  188  A    between atoms: _433  and  _436
REMARK  189  A    between atoms: _436  and  _437
REMARK  190  A    between atoms: _443  and  _445
REMARK  191  A    between atoms: _445  and  _446
REMARK  192  A    between atoms: _445  and  _448
REMARK  193  A    between atoms: _448  and  _449
REMARK  194  A    between atoms: _451  and  _453
REMARK  195  A    between atoms: _453  and  _454
REMARK  196  A    between atoms: _456  and  _458
REMARK  197  A    between atoms: _458  and  _459
REMARK  198  A    between atoms: _458  and  _461
REMARK  199  A    between atoms: _461  and  _462
REMARK  200  A    between atoms: _465  and  _467
REMARK  201  A    between atoms: _467  and  _468
REMARK  202  A    between atoms: _467  and  _470
REMARK  203  A    between atoms: _470  and  _471
REMARK  204  A    between atoms: _474  and  _476
REMARK  205  A    between atoms: _476  and  _477
REMARK  206  A    between atoms: _480  and  _482
REMARK  207  A    between atoms: _482  and  _483
REMARK  208  A    between atoms: _486  and  _488
REMARK  209  A    between atoms: _488  and  _489
REMARK  210  A    between atoms: _491  and  _493
REMARK  211  A    between atoms: _493  and  _494
REMARK  212  A    between atoms: _493  and  _496
REMARK  213  A    between atoms: _496  and  _497
REMARK                            x       y       z     vdW  Elec       q    Type
REMARK                         _______ _______ _______ _____ _____    ______ ____
ROOT
ATOM      1  O   HOH     1      18.591  34.330   0.222  0.00  0.00    +0.000 OA
ENDROOT
TORSDOF 0
REMARK  Name = ../refined-set-2016/2ews/2ews_pocket.pdb
REMARK  213 active torsions:
REMARK  status: ('A' for Active; 'I' for Inactive)
REMARK    1  A    between atoms: _1  and  _3
REMARK    2  A    between atoms: _3  and  _4
REMARK    3  A    between atoms: _3  and  _6
REMARK    4  A    between atoms: _6  and  _7
REMARK    5  A    between atoms: _10  and  _12
REMARK    6  A    between atoms: _12  and  _13
REMARK    7  A    between atoms: _16  and  _18
REMARK    8  A    between atoms: _18  and  _19
REMARK    9  A    between atoms: _21  and  _23
REMARK   10  A    between atoms: _23  and  _24
REMARK   11  A    between atoms: _26  and  _28
REMARK   12  A    between atoms: _28  and  _29
REMARK   13  A    between atoms: _28  and  _31
REMARK   14  A    between atoms: _31  and  _32
REMARK   15  A    between atoms: _35  and  _37
REMARK   16  A    between atoms: _37  and  _38
REMARK   17  A    between atoms: _37  and  _40
REMARK   18  A    between atoms: _40  and  _41
REMARK   19  A    between atoms: _44  and  _46
REMARK   20  A    between atoms: _46  and  _47
REMARK   21  A    between atoms: _46  and  _49
REMARK   22  A    between atoms: _49  and  _50
REMARK   23  A    between atoms: _53  and  _55
REMARK   24  A    between atoms: _55  and  _56
REMARK   25  A    between atoms: _55  and  _58
REMARK   26  A    between atoms: _58  and  _59
REMARK   27  A    between atoms: _59  and  _60
REMARK   28  A    between atoms: _60  and  _61
REMARK   29  A    between atoms: _61  and  _62
REMARK   30  A    between atoms: _66  and  _68
REMARK   31  A    between atoms: _68  and  _69
REMARK   32  A    between atoms: _68  and  _71
REMARK   33  A    between atoms: _71  and  _72
REMARK   34  A    between atoms: _75  and  _77
REMARK   35  A    between atoms: _77  and  _78
REMARK   36  A    between atoms: _77  and  _80
REMARK   37  A    between atoms: _80  and  _81
REMARK   38  A    between atoms: _81  and  _82
REMARK   39  A    between atoms: _85  and  _87
REMARK   40  A    between atoms: _87  and  _88
REMARK   41  A    between atoms: _87  and  _90
REMARK   42  A    between atoms: _90  and  _91
REMARK   43  A    between atoms: _94  and  _96
REMARK   44  A    between atoms: _96  and  _97
REMARK   45  A    between atoms: _96  and  _99
REMARK   46  A    between atoms: _99  and  _100
REMARK   47  A    between atoms: _103  and  _105
REMARK   48  A    between atoms: _105  and  _106
REMARK   49  A    between atoms: _105  and  _108
REMARK   50  A    between atoms: _108  and  _109
REMARK   51  A    between atoms: _109  and  _110
REMARK   52  A    between atoms: _110  and  _111
REMARK   53  A    between atoms: _111  and  _112
REMARK   54  A    between atoms: _116  and  _118
REMARK   55  A    between atoms: _118  and  _119
REMARK   56  A    between atoms: _118  and  _121
REMARK   57  A    between atoms: _121  and  _122
REMARK   58  A    between atoms: _125  and  _127
REMARK   59  A    between atoms: _127  and  _128
REMARK   60  A    between atoms: _130  and  _132
REMARK   61  A    between atoms: _132  and  _133
REMARK   62  A    between atoms: _135  and  _137
REMARK   63  A    between atoms: _137  and  _138
REMARK   64  A    between atoms: _137  and  _140
REMARK   65  A    between atoms: _140  and  _141
REMARK   66  A    between atoms: _146  and  _148
REMARK   67  A    between atoms: _148  and  _149
REMARK   68  A    between atoms: _148  and  _151
REMARK   69  A    between atoms: _151  and  _152
REMARK   70  A    between atoms: _152  and  _153
REMARK   71  A    between atoms: _156  and  _158
REMARK   72  A    between atoms: _158  and  _159
REMARK   73  A    between atoms: _158  and  _161
REMARK   74  A    between atoms: _161  and  _162
REMARK   75  A    between atoms: _168  and  _170
REMARK   76  A    between atoms: _170  and  _171
REMARK   77  A    between atoms: _170  and  _173
REMARK   78  A    between atoms: _173  and  _174
REMARK   79  A    between atoms: _179  and  _181
REMARK   80  A    between atoms: _181  and  _182
REMARK   81  A    between atoms: _181  and  _184
REMARK   82  A    between atoms: _187  and  _189
REMARK   83  A    between atoms: _189  and  _190
REMARK   84  A    between atoms: _192  and  _194
REMARK   85  A    between atoms: _194  and  _195
REMARK   86  A    between atoms: _194  and  _197
REMARK   87  A    between atoms: _197  and  _198
REMARK   88  A    between atoms: _201  and  _203
REMARK   89  A    between atoms: _203  and  _204
REMARK   90  A    between atoms: _206  and  _208
REMARK   91  A    between atoms: _208  and  _209
REMARK   92  A    between atoms: _208  and  _211
REMARK   93  A    between atoms: _211  and  _212
REMARK   94  A    between atoms: _215  and  _217
REMARK   95  A    between atoms: _217  and  _218
REMARK   96  A    between atoms: _217  and  _220
REMARK   97  A    between atoms: _220  and  _221
REMARK   98  A    between atoms: _223  and  _225
REMARK   99  A    between atoms: _225  and  _226
REMARK  100  A    between atoms: _228  and  _230
REMARK  101  A    between atoms: _230  and  _231
REMARK  102  A    between atoms: _233  and  _235
REMARK  103  A    between atoms: _235  and  _236
REMARK  104  A    between atoms: _238  and  _240
REMARK  105  A    between atoms: _240  and  _241
REMARK  106  A    between atoms: _240  and  _243
REMARK  107  A    between atoms: _243  and  _244
REMARK  108  A    between atoms: _244  and  _245
REMARK  109  A    between atoms: _247  and  _249
REMARK  110  A    between atoms: _249  and  _250
REMARK  111  A    between atoms: _249  and  _252
REMARK  112  A    between atoms: _252  and  _253
REMARK  113  A    between atoms: _256  and  _258
REMARK  114  A    between atoms: _258  and  _259
REMARK  115  A    between atoms: _258  and  _261
REMARK  116  A    between atoms: _261  and  _262
REMARK  117  A    between atoms: _262  and  _263
REMARK  118  A    between atoms: _268  and  _270
REMARK  119  A    between atoms: _270  and  _271
REMARK  120  A    between atoms: _273  and  _275
REMARK  121  A    between atoms: _275  and  _276
REMARK  122  A    between atoms: _275  and  _278
REMARK  123  A    between atoms: _278  and  _279
REMARK  124  A    between atoms: _282  and  _284
REMARK  125  A    between atoms: _284  and  _285
REMARK  126  A    between atoms: _284  and  _287
REMARK  127  A    between atoms: _287  and  _288
REMARK  128  A    between atoms: _291  and  _293
REMARK  129  A    between atoms: _293  and  _294
REMARK  130  A    between atoms: _293  and  _296
REMARK  131  A    between atoms: _296  and  _297
REMARK  132  A    between atoms: _302  and  _303
REMARK  133  A    between atoms: _305  and  _307
REMARK  134  A    between atoms: _307  and  _308
REMARK  135  A    between atoms: _307  and  _310
REMARK  136  A    between atoms: _310  and  _311
REMARK  137  A    between atoms: _311  and  _312
REMARK  138  A    between atoms: _312  and  _313
REMARK  139  A    between atoms: _313  and  _314
REMARK  140  A    between atoms: _318  and  _320
REMARK  141  A    between atoms: _320  and  _321
REMARK  142  A    between atoms: _320  and  _323
REMARK  143  A    between atoms: _323  and  _324
REMARK  144  A    between atoms: _327  and  _329
REMARK  145  A    between atoms: _329  and  _330
REMARK  146  A    between atoms: _329  and  _332
REMARK  147  A    between atoms: _332  and  _333
REMARK  148  A    between atoms: _336  and  _338
REMARK  149  A    between atoms: _338  and  _339
REMARK  150  A    between atoms: _338  and  _341
REMARK  151  A    between atoms: _341  and  _342
REMARK  152  A    between atoms: _345  and  _347
REMARK  153  A    between atoms: _347  and  _348
REMARK  154  A    between atoms: _350  and  _352
REMARK  155  A    between atoms: _352  and  _353
REMARK  156  A    between atoms: _352  and  _355
REMARK  157  A    between atoms: _355  and  _356
REMARK  158  A    between atoms: _358  and  _360
REMARK  159  A    between atoms: _360  and  _361
REMARK  160  A    between atoms: _360  and  _363
REMARK  161  A    between atoms: _363  and  _364
REMARK  162  A    between atoms: _366  and  _368
REMARK  163  A    between atoms: _368  and  _369
REMARK  164  A    between atoms: _368  and  _371
REMARK  165  A    between atoms: _371  and  _372
REMARK  166  A    between atoms: _378  and  _380
REMARK  167  A    between atoms: _380  and  _381
REMARK  168  A    between atoms: _380  and  _383
REMARK  169  A    between atoms: _383  and  _384
REMARK  170  A    between atoms: _389  and  _391
REMARK  171  A    between atoms: _391  and  _392
REMARK  172  A    between atoms: _391  and  _394
REMARK  173  A    between atoms: _394  and  _395
REMARK  174  A    between atoms: _400  and  _402
REMARK  175  A    between atoms: _402  and  _403
REMARK  176  A    between atoms: _402  and  _405
REMARK  177  A    between atoms: _405  and  _406
REMARK  178  A    between atoms: _411  and  _413
REMARK  179  A    between atoms: _413  and  _414
REMARK  180  A    between atoms: _413  and  _416
REMARK  181  A    between atoms: _416  and  _417
REMARK  182  A    between atoms: _420  and  _422
REMARK  183  A    between atoms: _422  and  _423
REMARK  184  A    between atoms: _425  and  _427
REMARK  185  A    between atoms: _427  and  _428
REMARK  186  A    between atoms: _431  and  _433
REMARK  187  A    between atoms: _433  and  _434
REMARK  188  A    between atoms: _433  and  _436
REMARK  189  A    between atoms: _436  and  _437
REMARK  190  A    between atoms: _443  and  _445
REMARK  191  A    between atoms: _445  and  _446
REMARK  192  A    between atoms: _445  and  _448
REMARK  193  A    between atoms: _448  and  _449
REMARK  194  A    between atoms: _451  and  _453
REMARK  195  A    between atoms: _453  and  _454
REMARK  196  A    between atoms: _456  and  _458
REMARK  197  A    between atoms: _458  and  _459
REMARK  198  A    between atoms: _458  and  _461
REMARK  199  A    between atoms: _461  and  _462
REMARK  200  A    between atoms: _465  and  _467
REMARK  201  A    between atoms: _467  and  _468
REMARK  202  A    between atoms: _467  and  _470
REMARK  203  A    between atoms: _470  and  _471
REMARK  204  A    between atoms: _474  and  _476
REMARK  205  A    between atoms: _476  and  _477
REMARK  206  A    between atoms: _480  and  _482
REMARK  207  A    between atoms: _482  and  _483
REMARK  208  A    between atoms: _486  and  _488
REMARK  209  A    between atoms: _488  and  _489
REMARK  210  A    between atoms: _491  and  _493
REMARK  211  A    between atoms: _493  and  _494
REMARK  212  A    between atoms: _493  and  _496
REMARK  213  A    between atoms: _496  and  _497
REMARK                            x       y       z     vdW  Elec       q    Type
REMARK                         _______ _______ _______ _____ _____    ______ ____
ROOT
ATOM      1  O   HOH     1      22.532  21.928  -8.446  0.00  0.00    +0.000 OA
ENDROOT
TORSDOF 0
REMARK  Name = ../refined-set-2016/2ews/2ews_pocket.pdb
REMARK  213 active torsions:
REMARK  status: ('A' for Active; 'I' for Inactive)
REMARK    1  A    between atoms: _1  and  _3
REMARK    2  A    between atoms: _3  and  _4
REMARK    3  A    between atoms: _3  and  _6
REMARK    4  A    between atoms: _6  and  _7
REMARK    5  A    between atoms: _10  and  _12
REMARK    6  A    between atoms: _12  and  _13
REMARK    7  A    between atoms: _16  and  _18
REMARK    8  A    between atoms: _18  and  _19
REMARK    9  A    between atoms: _21  and  _23
REMARK   10  A    between atoms: _23  and  _24
REMARK   11  A    between atoms: _26  and  _28
REMARK   12  A    between atoms: _28  and  _29
REMARK   13  A    between atoms: _28  and  _31
REMARK   14  A    between atoms: _31  and  _32
REMARK   15  A    between atoms: _35  and  _37
REMARK   16  A    between atoms: _37  and  _38
REMARK   17  A    between atoms: _37  and  _40
REMARK   18  A    between atoms: _40  and  _41
REMARK   19  A    between atoms: _44  and  _46
REMARK   20  A    between atoms: _46  and  _47
REMARK   21  A    between atoms: _46  and  _49
REMARK   22  A    between atoms: _49  and  _50
REMARK   23  A    between atoms: _53  and  _55
REMARK   24  A    between atoms: _55  and  _56
REMARK   25  A    between atoms: _55  and  _58
REMARK   26  A    between atoms: _58  and  _59
REMARK   27  A    between atoms: _59  and  _60
REMARK   28  A    between atoms: _60  and  _61
REMARK   29  A    between atoms: _61  and  _62
REMARK   30  A    between atoms: _66  and  _68
REMARK   31  A    between atoms: _68  and  _69
REMARK   32  A    between atoms: _68  and  _71
REMARK   33  A    between atoms: _71  and  _72
REMARK   34  A    between atoms: _75  and  _77
REMARK   35  A    between atoms: _77  and  _78
REMARK   36  A    between atoms: _77  and  _80
REMARK   37  A    between atoms: _80  and  _81
REMARK   38  A    between atoms: _81  and  _82
REMARK   39  A    between atoms: _85  and  _87
REMARK   40  A    between atoms: _87  and  _88
REMARK   41  A    between atoms: _87  and  _90
REMARK   42  A    between atoms: _90  and  _91
REMARK   43  A    between atoms: _94  and  _96
REMARK   44  A    between atoms: _96  and  _97
REMARK   45  A    between atoms: _96  and  _99
REMARK   46  A    between atoms: _99  and  _100
REMARK   47  A    between atoms: _103  and  _105
REMARK   48  A    between atoms: _105  and  _106
REMARK   49  A    between atoms: _105  and  _108
REMARK   50  A    between atoms: _108  and  _109
REMARK   51  A    between atoms: _109  and  _110
REMARK   52  A    between atoms: _110  and  _111
REMARK   53  A    between atoms: _111  and  _112
REMARK   54  A    between atoms: _116  and  _118
REMARK   55  A    between atoms: _118  and  _119
REMARK   56  A    between atoms: _118  and  _121
REMARK   57  A    between atoms: _121  and  _122
REMARK   58  A    between atoms: _125  and  _127
REMARK   59  A    between atoms: _127  and  _128
REMARK   60  A    between atoms: _130  and  _132
REMARK   61  A    between atoms: _132  and  _133
REMARK   62  A    between atoms: _135  and  _137
REMARK   63  A    between atoms: _137  and  _138
REMARK   64  A    between atoms: _137  and  _140
REMARK   65  A    between atoms: _140  and  _141
REMARK   66  A    between atoms: _146  and  _148
REMARK   67  A    between atoms: _148  and  _149
REMARK   68  A    between atoms: _148  and  _151
REMARK   69  A    between atoms: _151  and  _152
REMARK   70  A    between atoms: _152  and  _153
REMARK   71  A    between atoms: _156  and  _158
REMARK   72  A    between atoms: _158  and  _159
REMARK   73  A    between atoms: _158  and  _161
REMARK   74  A    between atoms: _161  and  _162
REMARK   75  A    between atoms: _168  and  _170
REMARK   76  A    between atoms: _170  and  _171
REMARK   77  A    between atoms: _170  and  _173
REMARK   78  A    between atoms: _173  and  _174
REMARK   79  A    between atoms: _179  and  _181
REMARK   80  A    between atoms: _181  and  _182
REMARK   81  A    between atoms: _181  and  _184
REMARK   82  A    between atoms: _187  and  _189
REMARK   83  A    between atoms: _189  and  _190
REMARK   84  A    between atoms: _192  and  _194
REMARK   85  A    between atoms: _194  and  _195
REMARK   86  A    between atoms: _194  and  _197
REMARK   87  A    between atoms: _197  and  _198
REMARK   88  A    between atoms: _201  and  _203
REMARK   89  A    between atoms: _203  and  _204
REMARK   90  A    between atoms: _206  and  _208
REMARK   91  A    between atoms: _208  and  _209
REMARK   92  A    between atoms: _208  and  _211
REMARK   93  A    between atoms: _211  and  _212
REMARK   94  A    between atoms: _215  and  _217
REMARK   95  A    between atoms: _217  and  _218
REMARK   96  A    between atoms: _217  and  _220
REMARK   97  A    between atoms: _220  and  _221
REMARK   98  A    between atoms: _223  and  _225
REMARK   99  A    between atoms: _225  and  _226
REMARK  100  A    between atoms: _228  and  _230
REMARK  101  A    between atoms: _230  and  _231
REMARK  102  A    between atoms: _233  and  _235
REMARK  103  A    between atoms: _235  and  _236
REMARK  104  A    between atoms: _238  and  _240
REMARK  105  A    between atoms: _240  and  _241
REMARK  106  A    between atoms: _240  and  _243
REMARK  107  A    between atoms: _243  and  _244
REMARK  108  A    between atoms: _244  and  _245
REMARK  109  A    between atoms: _247  and  _249
REMARK  110  A    between atoms: _249  and  _250
REMARK  111  A    between atoms: _249  and  _252
REMARK  112  A    between atoms: _252  and  _253
REMARK  113  A    between atoms: _256  and  _258
REMARK  114  A    between atoms: _258  and  _259
REMARK  115  A    between atoms: _258  and  _261
REMARK  116  A    between atoms: _261  and  _262
REMARK  117  A    between atoms: _262  and  _263
REMARK  118  A    between atoms: _268  and  _270
REMARK  119  A    between atoms: _270  and  _271
REMARK  120  A    between atoms: _273  and  _275
REMARK  121  A    between atoms: _275  and  _276
REMARK  122  A    between atoms: _275  and  _278
REMARK  123  A    between atoms: _278  and  _279
REMARK  124  A    between atoms: _282  and  _284
REMARK  125  A    between atoms: _284  and  _285
REMARK  126  A    between atoms: _284  and  _287
REMARK  127  A    between atoms: _287  and  _288
REMARK  128  A    between atoms: _291  and  _293
REMARK  129  A    between atoms: _293  and  _294
REMARK  130  A    between atoms: _293  and  _296
REMARK  131  A    between atoms: _296  and  _297
REMARK  132  A    between atoms: _302  and  _303
REMARK  133  A    between atoms: _305  and  _307
REMARK  134  A    between atoms: _307  and  _308
REMARK  135  A    between atoms: _307  and  _310
REMARK  136  A    between atoms: _310  and  _311
REMARK  137  A    between atoms: _311  and  _312
REMARK  138  A    between atoms: _312  and  _313
REMARK  139  A    between atoms: _313  and  _314
REMARK  140  A    between atoms: _318  and  _320
REMARK  141  A    between atoms: _320  and  _321
REMARK  142  A    between atoms: _320  and  _323
REMARK  143  A    between atoms: _323  and  _324
REMARK  144  A    between atoms: _327  and  _329
REMARK  145  A    between atoms: _329  and  _330
REMARK  146  A    between atoms: _329  and  _332
REMARK  147  A    between atoms: _332  and  _333
REMARK  148  A    between atoms: _336  and  _338
REMARK  149  A    between atoms: _338  and  _339
REMARK  150  A    between atoms: _338  and  _341
REMARK  151  A    between atoms: _341  and  _342
REMARK  152  A    between atoms: _345  and  _347
REMARK  153  A    between atoms: _347  and  _348
REMARK  154  A    between atoms: _350  and  _352
REMARK  155  A    between atoms: _352  and  _353
REMARK  156  A    between atoms: _352  and  _355
REMARK  157  A    between atoms: _355  and  _356
REMARK  158  A    between atoms: _358  and  _360
REMARK  159  A    between atoms: _360  and  _361
REMARK  160  A    between atoms: _360  and  _363
REMARK  161  A    between atoms: _363  and  _364
REMARK  162  A    between atoms: _366  and  _368
REMARK  163  A    between atoms: _368  and  _369
REMARK  164  A    between atoms: _368  and  _371
REMARK  165  A    between atoms: _371  and  _372
REMARK  166  A    between atoms: _378  and  _380
REMARK  167  A    between atoms: _380  and  _381
REMARK  168  A    between atoms: _380  and  _383
REMARK  169  A    between atoms: _383  and  _384
REMARK  170  A    between atoms: _389  and  _391
REMARK  171  A    between atoms: _391  and  _392
REMARK  172  A    between atoms: _391  and  _394
REMARK  173  A    between atoms: _394  and  _395
REMARK  174  A    between atoms: _400  and  _402
REMARK  175  A    between atoms: _402  and  _403
REMARK  176  A    between atoms: _402  and  _405
REMARK  177  A    between atoms: _405  and  _406
REMARK  178  A    between atoms: _411  and  _413
REMARK  179  A    between atoms: _413  and  _414
REMARK  180  A    between atoms: _413  and  _416
REMARK  181  A    between atoms: _416  and  _417
REMARK  182  A    between atoms: _420  and  _422
REMARK  183  A    between atoms: _422  and  _423
REMARK  184  A    between atoms: _425  and  _427
REMARK  185  A    between atoms: _427  and  _428
REMARK  186  A    between atoms: _431  and  _433
REMARK  187  A    between atoms: _433  and  _434
REMARK  188  A    between atoms: _433  and  _436
REMARK  189  A    between atoms: _436  and  _437
REMARK  190  A    between atoms: _443  and  _445
REMARK  191  A    between atoms: _445  and  _446
REMARK  192  A    between atoms: _445  and  _448
REMARK  193  A    between atoms: _448  and  _449
REMARK  194  A    between atoms: _451  and  _453
REMARK  195  A    between atoms: _453  and  _454
REMARK  196  A    between atoms: _456  and  _458
REMARK  197  A    between atoms: _458  and  _459
REMARK  198  A    between atoms: _458  and  _461
REMARK  199  A    between atoms: _461  and  _462
REMARK  200  A    between atoms: _465  and  _467
REMARK  201  A    between atoms: _467  and  _468
REMARK  202  A    between atoms: _467  and  _470
REMARK  203  A    between atoms: _470  and  _471
REMARK  204  A    between atoms: _474  and  _476
REMARK  205  A    between atoms: _476  and  _477
REMARK  206  A    between atoms: _480  and  _482
REMARK  207  A    between atoms: _482  and  _483
REMARK  208  A    between atoms: _486  and  _488
REMARK  209  A    between atoms: _488  and  _489
REMARK  210  A    between atoms: _491  and  _493
REMARK  211  A    between atoms: _493  and  _494
REMARK  212  A    between atoms: _493  and  _496
REMARK  213  A    between atoms: _496  and  _497
REMARK                            x       y       z     vdW  Elec       q    Type
REMARK                         _______ _______ _______ _____ _____    ______ ____
ROOT
ATOM      1  O   HOH     1      21.014  27.526  -0.577  0.00  0.00    +0.000 OA
ENDROOT
TORSDOF 0
REMARK  Name = ../refined-set-2016/2ews/2ews_pocket.pdb
REMARK  213 active torsions:
REMARK  status: ('A' for Active; 'I' for Inactive)
REMARK    1  A    between atoms: _1  and  _3
REMARK    2  A    between atoms: _3  and  _4
REMARK    3  A    between atoms: _3  and  _6
REMARK    4  A    between atoms: _6  and  _7
REMARK    5  A    between atoms: _10  and  _12
REMARK    6  A    between atoms: _12  and  _13
REMARK    7  A    between atoms: _16  and  _18
REMARK    8  A    between atoms: _18  and  _19
REMARK    9  A    between atoms: _21  and  _23
REMARK   10  A    between atoms: _23  and  _24
REMARK   11  A    between atoms: _26  and  _28
REMARK   12  A    between atoms: _28  and  _29
REMARK   13  A    between atoms: _28  and  _31
REMARK   14  A    between atoms: _31  and  _32
REMARK   15  A    between atoms: _35  and  _37
REMARK   16  A    between atoms: _37  and  _38
REMARK   17  A    between atoms: _37  and  _40
REMARK   18  A    between atoms: _40  and  _41
REMARK   19  A    between atoms: _44  and  _46
REMARK   20  A    between atoms: _46  and  _47
REMARK   21  A    between atoms: _46  and  _49
REMARK   22  A    between atoms: _49  and  _50
REMARK   23  A    between atoms: _53  and  _55
REMARK   24  A    between atoms: _55  and  _56
REMARK   25  A    between atoms: _55  and  _58
REMARK   26  A    between atoms: _58  and  _59
REMARK   27  A    between atoms: _59  and  _60
REMARK   28  A    between atoms: _60  and  _61
REMARK   29  A    between atoms: _61  and  _62
REMARK   30  A    between atoms: _66  and  _68
REMARK   31  A    between atoms: _68  and  _69
REMARK   32  A    between atoms: _68  and  _71
REMARK   33  A    between atoms: _71  and  _72
REMARK   34  A    between atoms: _75  and  _77
REMARK   35  A    between atoms: _77  and  _78
REMARK   36  A    between atoms: _77  and  _80
REMARK   37  A    between atoms: _80  and  _81
REMARK   38  A    between atoms: _81  and  _82
REMARK   39  A    between atoms: _85  and  _87
REMARK   40  A    between atoms: _87  and  _88
REMARK   41  A    between atoms: _87  and  _90
REMARK   42  A    between atoms: _90  and  _91
REMARK   43  A    between atoms: _94  and  _96
REMARK   44  A    between atoms: _96  and  _97
REMARK   45  A    between atoms: _96  and  _99
REMARK   46  A    between atoms: _99  and  _100
REMARK   47  A    between atoms: _103  and  _105
REMARK   48  A    between atoms: _105  and  _106
REMARK   49  A    between atoms: _105  and  _108
REMARK   50  A    between atoms: _108  and  _109
REMARK   51  A    between atoms: _109  and  _110
REMARK   52  A    between atoms: _110  and  _111
REMARK   53  A    between atoms: _111  and  _112
REMARK   54  A    between atoms: _116  and  _118
REMARK   55  A    between atoms: _118  and  _119
REMARK   56  A    between atoms: _118  and  _121
REMARK   57  A    between atoms: _121  and  _122
REMARK   58  A    between atoms: _125  and  _127
REMARK   59  A    between atoms: _127  and  _128
REMARK   60  A    between atoms: _130  and  _132
REMARK   61  A    between atoms: _132  and  _133
REMARK   62  A    between atoms: _135  and  _137
REMARK   63  A    between atoms: _137  and  _138
REMARK   64  A    between atoms: _137  and  _140
REMARK   65  A    between atoms: _140  and  _141
REMARK   66  A    between atoms: _146  and  _148
REMARK   67  A    between atoms: _148  and  _149
REMARK   68  A    between atoms: _148  and  _151
REMARK   69  A    between atoms: _151  and  _152
REMARK   70  A    between atoms: _152  and  _153
REMARK   71  A    between atoms: _156  and  _158
REMARK   72  A    between atoms: _158  and  _159
REMARK   73  A    between atoms: _158  and  _161
REMARK   74  A    between atoms: _161  and  _162
REMARK   75  A    between atoms: _168  and  _170
REMARK   76  A    between atoms: _170  and  _171
REMARK   77  A    between atoms: _170  and  _173
REMARK   78  A    between atoms: _173  and  _174
REMARK   79  A    between atoms: _179  and  _181
REMARK   80  A    between atoms: _181  and  _182
REMARK   81  A    between atoms: _181  and  _184
REMARK   82  A    between atoms: _187  and  _189
REMARK   83  A    between atoms: _189  and  _190
REMARK   84  A    between atoms: _192  and  _194
REMARK   85  A    between atoms: _194  and  _195
REMARK   86  A    between atoms: _194  and  _197
REMARK   87  A    between atoms: _197  and  _198
REMARK   88  A    between atoms: _201  and  _203
REMARK   89  A    between atoms: _203  and  _204
REMARK   90  A    between atoms: _206  and  _208
REMARK   91  A    between atoms: _208  and  _209
REMARK   92  A    between atoms: _208  and  _211
REMARK   93  A    between atoms: _211  and  _212
REMARK   94  A    between atoms: _215  and  _217
REMARK   95  A    between atoms: _217  and  _218
REMARK   96  A    between atoms: _217  and  _220
REMARK   97  A    between atoms: _220  and  _221
REMARK   98  A    between atoms: _223  and  _225
REMARK   99  A    between atoms: _225  and  _226
REMARK  100  A    between atoms: _228  and  _230
REMARK  101  A    between atoms: _230  and  _231
REMARK  102  A    between atoms: _233  and  _235
REMARK  103  A    between atoms: _235  and  _236
REMARK  104  A    between atoms: _238  and  _240
REMARK  105  A    between atoms: _240  and  _241
REMARK  106  A    between atoms: _240  and  _243
REMARK  107  A    between atoms: _243  and  _244
REMARK  108  A    between atoms: _244  and  _245
REMARK  109  A    between atoms: _247  and  _249
REMARK  110  A    between atoms: _249  and  _250
REMARK  111  A    between atoms: _249  and  _252
REMARK  112  A    between atoms: _252  and  _253
REMARK  113  A    between atoms: _256  and  _258
REMARK  114  A    between atoms: _258  and  _259
REMARK  115  A    between atoms: _258  and  _261
REMARK  116  A    between atoms: _261  and  _262
REMARK  117  A    between atoms: _262  and  _263
REMARK  118  A    between atoms: _268  and  _270
REMARK  119  A    between atoms: _270  and  _271
REMARK  120  A    between atoms: _273  and  _275
REMARK  121  A    between atoms: _275  and  _276
REMARK  122  A    between atoms: _275  and  _278
REMARK  123  A    between atoms: _278  and  _279
REMARK  124  A    between atoms: _282  and  _284
REMARK  125  A    between atoms: _284  and  _285
REMARK  126  A    between atoms: _284  and  _287
REMARK  127  A    between atoms: _287  and  _288
REMARK  128  A    between atoms: _291  and  _293
REMARK  129  A    between atoms: _293  and  _294
REMARK  130  A    between atoms: _293  and  _296
REMARK  131  A    between atoms: _296  and  _297
REMARK  132  A    between atoms: _302  and  _303
REMARK  133  A    between atoms: _305  and  _307
REMARK  134  A    between atoms: _307  and  _308
REMARK  135  A    between atoms: _307  and  _310
REMARK  136  A    between atoms: _310  and  _311
REMARK  137  A    between atoms: _311  and  _312
REMARK  138  A    between atoms: _312  and  _313
REMARK  139  A    between atoms: _313  and  _314
REMARK  140  A    between atoms: _318  and  _320
REMARK  141  A    between atoms: _320  and  _321
REMARK  142  A    between atoms: _320  and  _323
REMARK  143  A    between atoms: _323  and  _324
REMARK  144  A    between atoms: _327  and  _329
REMARK  145  A    between atoms: _329  and  _330
REMARK  146  A    between atoms: _329  and  _332
REMARK  147  A    between atoms: _332  and  _333
REMARK  148  A    between atoms: _336  and  _338
REMARK  149  A    between atoms: _338  and  _339
REMARK  150  A    between atoms: _338  and  _341
REMARK  151  A    between atoms: _341  and  _342
REMARK  152  A    between atoms: _345  and  _347
REMARK  153  A    between atoms: _347  and  _348
REMARK  154  A    between atoms: _350  and  _352
REMARK  155  A    between atoms: _352  and  _353
REMARK  156  A    between atoms: _352  and  _355
REMARK  157  A    between atoms: _355  and  _356
REMARK  158  A    between atoms: _358  and  _360
REMARK  159  A    between atoms: _360  and  _361
REMARK  160  A    between atoms: _360  and  _363
REMARK  161  A    between atoms: _363  and  _364
REMARK  162  A    between atoms: _366  and  _368
REMARK  163  A    between atoms: _368  and  _369
REMARK  164  A    between atoms: _368  and  _371
REMARK  165  A    between atoms: _371  and  _372
REMARK  166  A    between atoms: _378  and  _380
REMARK  167  A    between atoms: _380  and  _381
REMARK  168  A    between atoms: _380  and  _383
REMARK  169  A    between atoms: _383  and  _384
REMARK  170  A    between atoms: _389  and  _391
REMARK  171  A    between atoms: _391  and  _392
REMARK  172  A    between atoms: _391  and  _394
REMARK  173  A    between atoms: _394  and  _395
REMARK  174  A    between atoms: _400  and  _402
REMARK  175  A    between atoms: _402  and  _403
REMARK  176  A    between atoms: _402  and  _405
REMARK  177  A    between atoms: _405  and  _406
REMARK  178  A    between atoms: _411  and  _413
REMARK  179  A    between atoms: _413  and  _414
REMARK  180  A    between atoms: _413  and  _416
REMARK  181  A    between atoms: _416  and  _417
REMARK  182  A    between atoms: _420  and  _422
REMARK  183  A    between atoms: _422  and  _423
REMARK  184  A    between atoms: _425  and  _427
REMARK  185  A    between atoms: _427  and  _428
REMARK  186  A    between atoms: _431  and  _433
REMARK  187  A    between atoms: _433  and  _434
REMARK  188  A    between atoms: _433  and  _436
REMARK  189  A    between atoms: _436  and  _437
REMARK  190  A    between atoms: _443  and  _445
REMARK  191  A    between atoms: _445  and  _446
REMARK  192  A    between atoms: _445  and  _448
REMARK  193  A    between atoms: _448  and  _449
REMARK  194  A    between atoms: _451  and  _453
REMARK  195  A    between atoms: _453  and  _454
REMARK  196  A    between atoms: _456  and  _458
REMARK  197  A    between atoms: _458  and  _459
REMARK  198  A    between atoms: _458  and  _461
REMARK  199  A    between atoms: _461  and  _462
REMARK  200  A    between atoms: _465  and  _467
REMARK  201  A    between atoms: _467  and  _468
REMARK  202  A    between atoms: _467  and  _470
REMARK  203  A    between atoms: _470  and  _471
REMARK  204  A    between atoms: _474  and  _476
REMARK  205  A    between atoms: _476  and  _477
REMARK  206  A    between atoms: _480  and  _482
REMARK  207  A    between atoms: _482  and  _483
REMARK  208  A    between atoms: _486  and  _488
REMARK  209  A    between atoms: _488  and  _489
REMARK  210  A    between atoms: _491  and  _493
REMARK  211  A    between atoms: _493  and  _494
REMARK  212  A    between atoms: _493  and  _496
REMARK  213  A    between atoms: _496  and  _497
REMARK                            x       y       z     vdW  Elec       q    Type
REMARK                         _______ _______ _______ _____ _____    ______ ____
ROOT
ATOM      1  O   HOH     1       4.648  30.575  -9.128  0.00  0.00    +0.000 OA
ENDROOT
TORSDOF 0
REMARK  Name = ../refined-set-2016/2ews/2ews_pocket.pdb
REMARK  213 active torsions:
REMARK  status: ('A' for Active; 'I' for Inactive)
REMARK    1  A    between atoms: _1  and  _3
REMARK    2  A    between atoms: _3  and  _4
REMARK    3  A    between atoms: _3  and  _6
REMARK    4  A    between atoms: _6  and  _7
REMARK    5  A    between atoms: _10  and  _12
REMARK    6  A    between atoms: _12  and  _13
REMARK    7  A    between atoms: _16  and  _18
REMARK    8  A    between atoms: _18  and  _19
REMARK    9  A    between atoms: _21  and  _23
REMARK   10  A    between atoms: _23  and  _24
REMARK   11  A    between atoms: _26  and  _28
REMARK   12  A    between atoms: _28  and  _29
REMARK   13  A    between atoms: _28  and  _31
REMARK   14  A    between atoms: _31  and  _32
REMARK   15  A    between atoms: _35  and  _37
REMARK   16  A    between atoms: _37  and  _38
REMARK   17  A    between atoms: _37  and  _40
REMARK   18  A    between atoms: _40  and  _41
REMARK   19  A    between atoms: _44  and  _46
REMARK   20  A    between atoms: _46  and  _47
REMARK   21  A    between atoms: _46  and  _49
REMARK   22  A    between atoms: _49  and  _50
REMARK   23  A    between atoms: _53  and  _55
REMARK   24  A    between atoms: _55  and  _56
REMARK   25  A    between atoms: _55  and  _58
REMARK   26  A    between atoms: _58  and  _59
REMARK   27  A    between atoms: _59  and  _60
REMARK   28  A    between atoms: _60  and  _61
REMARK   29  A    between atoms: _61  and  _62
REMARK   30  A    between atoms: _66  and  _68
REMARK   31  A    between atoms: _68  and  _69
REMARK   32  A    between atoms: _68  and  _71
REMARK   33  A    between atoms: _71  and  _72
REMARK   34  A    between atoms: _75  and  _77
REMARK   35  A    between atoms: _77  and  _78
REMARK   36  A    between atoms: _77  and  _80
REMARK   37  A    between atoms: _80  and  _81
REMARK   38  A    between atoms: _81  and  _82
REMARK   39  A    between atoms: _85  and  _87
REMARK   40  A    between atoms: _87  and  _88
REMARK   41  A    between atoms: _87  and  _90
REMARK   42  A    between atoms: _90  and  _91
REMARK   43  A    between atoms: _94  and  _96
REMARK   44  A    between atoms: _96  and  _97
REMARK   45  A    between atoms: _96  and  _99
REMARK   46  A    between atoms: _99  and  _100
REMARK   47  A    between atoms: _103  and  _105
REMARK   48  A    between atoms: _105  and  _106
REMARK   49  A    between atoms: _105  and  _108
REMARK   50  A    between atoms: _108  and  _109
REMARK   51  A    between atoms: _109  and  _110
REMARK   52  A    between atoms: _110  and  _111
REMARK   53  A    between atoms: _111  and  _112
REMARK   54  A    between atoms: _116  and  _118
REMARK   55  A    between atoms: _118  and  _119
REMARK   56  A    between atoms: _118  and  _121
REMARK   57  A    between atoms: _121  and  _122
REMARK   58  A    between atoms: _125  and  _127
REMARK   59  A    between atoms: _127  and  _128
REMARK   60  A    between atoms: _130  and  _132
REMARK   61  A    between atoms: _132  and  _133
REMARK   62  A    between atoms: _135  and  _137
REMARK   63  A    between atoms: _137  and  _138
REMARK   64  A    between atoms: _137  and  _140
REMARK   65  A    between atoms: _140  and  _141
REMARK   66  A    between atoms: _146  and  _148
REMARK   67  A    between atoms: _148  and  _149
REMARK   68  A    between atoms: _148  and  _151
REMARK   69  A    between atoms: _151  and  _152
REMARK   70  A    between atoms: _152  and  _153
REMARK   71  A    between atoms: _156  and  _158
REMARK   72  A    between atoms: _158  and  _159
REMARK   73  A    between atoms: _158  and  _161
REMARK   74  A    between atoms: _161  and  _162
REMARK   75  A    between atoms: _168  and  _170
REMARK   76  A    between atoms: _170  and  _171
REMARK   77  A    between atoms: _170  and  _173
REMARK   78  A    between atoms: _173  and  _174
REMARK   79  A    between atoms: _179  and  _181
REMARK   80  A    between atoms: _181  and  _182
REMARK   81  A    between atoms: _181  and  _184
REMARK   82  A    between atoms: _187  and  _189
REMARK   83  A    between atoms: _189  and  _190
REMARK   84  A    between atoms: _192  and  _194
REMARK   85  A    between atoms: _194  and  _195
REMARK   86  A    between atoms: _194  and  _197
REMARK   87  A    between atoms: _197  and  _198
REMARK   88  A    between atoms: _201  and  _203
REMARK   89  A    between atoms: _203  and  _204
REMARK   90  A    between atoms: _206  and  _208
REMARK   91  A    between atoms: _208  and  _209
REMARK   92  A    between atoms: _208  and  _211
REMARK   93  A    between atoms: _211  and  _212
REMARK   94  A    between atoms: _215  and  _217
REMARK   95  A    between atoms: _217  and  _218
REMARK   96  A    between atoms: _217  and  _220
REMARK   97  A    between atoms: _220  and  _221
REMARK   98  A    between atoms: _223  and  _225
REMARK   99  A    between atoms: _225  and  _226
REMARK  100  A    between atoms: _228  and  _230
REMARK  101  A    between atoms: _230  and  _231
REMARK  102  A    between atoms: _233  and  _235
REMARK  103  A    between atoms: _235  and  _236
REMARK  104  A    between atoms: _238  and  _240
REMARK  105  A    between atoms: _240  and  _241
REMARK  106  A    between atoms: _240  and  _243
REMARK  107  A    between atoms: _243  and  _244
REMARK  108  A    between atoms: _244  and  _245
REMARK  109  A    between atoms: _247  and  _249
REMARK  110  A    between atoms: _249  and  _250
REMARK  111  A    between atoms: _249  and  _252
REMARK  112  A    between atoms: _252  and  _253
REMARK  113  A    between atoms: _256  and  _258
REMARK  114  A    between atoms: _258  and  _259
REMARK  115  A    between atoms: _258  and  _261
REMARK  116  A    between atoms: _261  and  _262
REMARK  117  A    between atoms: _262  and  _263
REMARK  118  A    between atoms: _268  and  _270
REMARK  119  A    between atoms: _270  and  _271
REMARK  120  A    between atoms: _273  and  _275
REMARK  121  A    between atoms: _275  and  _276
REMARK  122  A    between atoms: _275  and  _278
REMARK  123  A    between atoms: _278  and  _279
REMARK  124  A    between atoms: _282  and  _284
REMARK  125  A    between atoms: _284  and  _285
REMARK  126  A    between atoms: _284  and  _287
REMARK  127  A    between atoms: _287  and  _288
REMARK  128  A    between atoms: _291  and  _293
REMARK  129  A    between atoms: _293  and  _294
REMARK  130  A    between atoms: _293  and  _296
REMARK  131  A    between atoms: _296  and  _297
REMARK  132  A    between atoms: _302  and  _303
REMARK  133  A    between atoms: _305  and  _307
REMARK  134  A    between atoms: _307  and  _308
REMARK  135  A    between atoms: _307  and  _310
REMARK  136  A    between atoms: _310  and  _311
REMARK  137  A    between atoms: _311  and  _312
REMARK  138  A    between atoms: _312  and  _313
REMARK  139  A    between atoms: _313  and  _314
REMARK  140  A    between atoms: _318  and  _320
REMARK  141  A    between atoms: _320  and  _321
REMARK  142  A    between atoms: _320  and  _323
REMARK  143  A    between atoms: _323  and  _324
REMARK  144  A    between atoms: _327  and  _329
REMARK  145  A    between atoms: _329  and  _330
REMARK  146  A    between atoms: _329  and  _332
REMARK  147  A    between atoms: _332  and  _333
REMARK  148  A    between atoms: _336  and  _338
REMARK  149  A    between atoms: _338  and  _339
REMARK  150  A    between atoms: _338  and  _341
REMARK  151  A    between atoms: _341  and  _342
REMARK  152  A    between atoms: _345  and  _347
REMARK  153  A    between atoms: _347  and  _348
REMARK  154  A    between atoms: _350  and  _352
REMARK  155  A    between atoms: _352  and  _353
REMARK  156  A    between atoms: _352  and  _355
REMARK  157  A    between atoms: _355  and  _356
REMARK  158  A    between atoms: _358  and  _360
REMARK  159  A    between atoms: _360  and  _361
REMARK  160  A    between atoms: _360  and  _363
REMARK  161  A    between atoms: _363  and  _364
REMARK  162  A    between atoms: _366  and  _368
REMARK  163  A    between atoms: _368  and  _369
REMARK  164  A    between atoms: _368  and  _371
REMARK  165  A    between atoms: _371  and  _372
REMARK  166  A    between atoms: _378  and  _380
REMARK  167  A    between atoms: _380  and  _381
REMARK  168  A    between atoms: _380  and  _383
REMARK  169  A    between atoms: _383  and  _384
REMARK  170  A    between atoms: _389  and  _391
REMARK  171  A    between atoms: _391  and  _392
REMARK  172  A    between atoms: _391  and  _394
REMARK  173  A    between atoms: _394  and  _395
REMARK  174  A    between atoms: _400  and  _402
REMARK  175  A    between atoms: _402  and  _403
REMARK  176  A    between atoms: _402  and  _405
REMARK  177  A    between atoms: _405  and  _406
REMARK  178  A    between atoms: _411  and  _413
REMARK  179  A    between atoms: _413  and  _414
REMARK  180  A    between atoms: _413  and  _416
REMARK  181  A    between atoms: _416  and  _417
REMARK  182  A    between atoms: _420  and  _422
REMARK  183  A    between atoms: _422  and  _423
REMARK  184  A    between atoms: _425  and  _427
REMARK  185  A    between atoms: _427  and  _428
REMARK  186  A    between atoms: _431  and  _433
REMARK  187  A    between atoms: _433  and  _434
REMARK  188  A    between atoms: _433  and  _436
REMARK  189  A    between atoms: _436  and  _437
REMARK  190  A    between atoms: _443  and  _445
REMARK  191  A    between atoms: _445  and  _446
REMARK  192  A    between atoms: _445  and  _448
REMARK  193  A    between atoms: _448  and  _449
REMARK  194  A    between atoms: _451  and  _453
REMARK  195  A    between atoms: _453  and  _454
REMARK  196  A    between atoms: _456  and  _458
REMARK  197  A    between atoms: _458  and  _459
REMARK  198  A    between atoms: _458  and  _461
REMARK  199  A    between atoms: _461  and  _462
REMARK  200  A    between atoms: _465  and  _467
REMARK  201  A    between atoms: _467  and  _468
REMARK  202  A    between atoms: _467  and  _470
REMARK  203  A    between atoms: _470  and  _471
REMARK  204  A    between atoms: _474  and  _476
REMARK  205  A    between atoms: _476  and  _477
REMARK  206  A    between atoms: _480  and  _482
REMARK  207  A    between atoms: _482  and  _483
REMARK  208  A    between atoms: _486  and  _488
REMARK  209  A    between atoms: _488  and  _489
REMARK  210  A    between atoms: _491  and  _493
REMARK  211  A    between atoms: _493  and  _494
REMARK  212  A    between atoms: _493  and  _496
REMARK  213  A    between atoms: _496  and  _497
REMARK                            x       y       z     vdW  Elec       q    Type
REMARK                         _______ _______ _______ _____ _____    ______ ____
ROOT
ATOM      1  O   HOH     1      14.201  34.958  -8.583  0.00  0.00    +0.000 OA
ENDROOT
TORSDOF 0
REMARK  Name = ../refined-set-2016/2ews/2ews_pocket.pdb
REMARK  213 active torsions:
REMARK  status: ('A' for Active; 'I' for Inactive)
REMARK    1  A    between atoms: _1  and  _3
REMARK    2  A    between atoms: _3  and  _4
REMARK    3  A    between atoms: _3  and  _6
REMARK    4  A    between atoms: _6  and  _7
REMARK    5  A    between atoms: _10  and  _12
REMARK    6  A    between atoms: _12  and  _13
REMARK    7  A    between atoms: _16  and  _18
REMARK    8  A    between atoms: _18  and  _19
REMARK    9  A    between atoms: _21  and  _23
REMARK   10  A    between atoms: _23  and  _24
REMARK   11  A    between atoms: _26  and  _28
REMARK   12  A    between atoms: _28  and  _29
REMARK   13  A    between atoms: _28  and  _31
REMARK   14  A    between atoms: _31  and  _32
REMARK   15  A    between atoms: _35  and  _37
REMARK   16  A    between atoms: _37  and  _38
REMARK   17  A    between atoms: _37  and  _40
REMARK   18  A    between atoms: _40  and  _41
REMARK   19  A    between atoms: _44  and  _46
REMARK   20  A    between atoms: _46  and  _47
REMARK   21  A    between atoms: _46  and  _49
REMARK   22  A    between atoms: _49  and  _50
REMARK   23  A    between atoms: _53  and  _55
REMARK   24  A    between atoms: _55  and  _56
REMARK   25  A    between atoms: _55  and  _58
REMARK   26  A    between atoms: _58  and  _59
REMARK   27  A    between atoms: _59  and  _60
REMARK   28  A    between atoms: _60  and  _61
REMARK   29  A    between atoms: _61  and  _62
REMARK   30  A    between atoms: _66  and  _68
REMARK   31  A    between atoms: _68  and  _69
REMARK   32  A    between atoms: _68  and  _71
REMARK   33  A    between atoms: _71  and  _72
REMARK   34  A    between atoms: _75  and  _77
REMARK   35  A    between atoms: _77  and  _78
REMARK   36  A    between atoms: _77  and  _80
REMARK   37  A    between atoms: _80  and  _81
REMARK   38  A    between atoms: _81  and  _82
REMARK   39  A    between atoms: _85  and  _87
REMARK   40  A    between atoms: _87  and  _88
REMARK   41  A    between atoms: _87  and  _90
REMARK   42  A    between atoms: _90  and  _91
REMARK   43  A    between atoms: _94  and  _96
REMARK   44  A    between atoms: _96  and  _97
REMARK   45  A    between atoms: _96  and  _99
REMARK   46  A    between atoms: _99  and  _100
REMARK   47  A    between atoms: _103  and  _105
REMARK   48  A    between atoms: _105  and  _106
REMARK   49  A    between atoms: _105  and  _108
REMARK   50  A    between atoms: _108  and  _109
REMARK   51  A    between atoms: _109  and  _110
REMARK   52  A    between atoms: _110  and  _111
REMARK   53  A    between atoms: _111  and  _112
REMARK   54  A    between atoms: _116  and  _118
REMARK   55  A    between atoms: _118  and  _119
REMARK   56  A    between atoms: _118  and  _121
REMARK   57  A    between atoms: _121  and  _122
REMARK   58  A    between atoms: _125  and  _127
REMARK   59  A    between atoms: _127  and  _128
REMARK   60  A    between atoms: _130  and  _132
REMARK   61  A    between atoms: _132  and  _133
REMARK   62  A    between atoms: _135  and  _137
REMARK   63  A    between atoms: _137  and  _138
REMARK   64  A    between atoms: _137  and  _140
REMARK   65  A    between atoms: _140  and  _141
REMARK   66  A    between atoms: _146  and  _148
REMARK   67  A    between atoms: _148  and  _149
REMARK   68  A    between atoms: _148  and  _151
REMARK   69  A    between atoms: _151  and  _152
REMARK   70  A    between atoms: _152  and  _153
REMARK   71  A    between atoms: _156  and  _158
REMARK   72  A    between atoms: _158  and  _159
REMARK   73  A    between atoms: _158  and  _161
REMARK   74  A    between atoms: _161  and  _162
REMARK   75  A    between atoms: _168  and  _170
REMARK   76  A    between atoms: _170  and  _171
REMARK   77  A    between atoms: _170  and  _173
REMARK   78  A    between atoms: _173  and  _174
REMARK   79  A    between atoms: _179  and  _181
REMARK   80  A    between atoms: _181  and  _182
REMARK   81  A    between atoms: _181  and  _184
REMARK   82  A    between atoms: _187  and  _189
REMARK   83  A    between atoms: _189  and  _190
REMARK   84  A    between atoms: _192  and  _194
REMARK   85  A    between atoms: _194  and  _195
REMARK   86  A    between atoms: _194  and  _197
REMARK   87  A    between atoms: _197  and  _198
REMARK   88  A    between atoms: _201  and  _203
REMARK   89  A    between atoms: _203  and  _204
REMARK   90  A    between atoms: _206  and  _208
REMARK   91  A    between atoms: _208  and  _209
REMARK   92  A    between atoms: _208  and  _211
REMARK   93  A    between atoms: _211  and  _212
REMARK   94  A    between atoms: _215  and  _217
REMARK   95  A    between atoms: _217  and  _218
REMARK   96  A    between atoms: _217  and  _220
REMARK   97  A    between atoms: _220  and  _221
REMARK   98  A    between atoms: _223  and  _225
REMARK   99  A    between atoms: _225  and  _226
REMARK  100  A    between atoms: _228  and  _230
REMARK  101  A    between atoms: _230  and  _231
REMARK  102  A    between atoms: _233  and  _235
REMARK  103  A    between atoms: _235  and  _236
REMARK  104  A    between atoms: _238  and  _240
REMARK  105  A    between atoms: _240  and  _241
REMARK  106  A    between atoms: _240  and  _243
REMARK  107  A    between atoms: _243  and  _244
REMARK  108  A    between atoms: _244  and  _245
REMARK  109  A    between atoms: _247  and  _249
REMARK  110  A    between atoms: _249  and  _250
REMARK  111  A    between atoms: _249  and  _252
REMARK  112  A    between atoms: _252  and  _253
REMARK  113  A    between atoms: _256  and  _258
REMARK  114  A    between atoms: _258  and  _259
REMARK  115  A    between atoms: _258  and  _261
REMARK  116  A    between atoms: _261  and  _262
REMARK  117  A    between atoms: _262  and  _263
REMARK  118  A    between atoms: _268  and  _270
REMARK  119  A    between atoms: _270  and  _271
REMARK  120  A    between atoms: _273  and  _275
REMARK  121  A    between atoms: _275  and  _276
REMARK  122  A    between atoms: _275  and  _278
REMARK  123  A    between atoms: _278  and  _279
REMARK  124  A    between atoms: _282  and  _284
REMARK  125  A    between atoms: _284  and  _285
REMARK  126  A    between atoms: _284  and  _287
REMARK  127  A    between atoms: _287  and  _288
REMARK  128  A    between atoms: _291  and  _293
REMARK  129  A    between atoms: _293  and  _294
REMARK  130  A    between atoms: _293  and  _296
REMARK  131  A    between atoms: _296  and  _297
REMARK  132  A    between atoms: _302  and  _303
REMARK  133  A    between atoms: _305  and  _307
REMARK  134  A    between atoms: _307  and  _308
REMARK  135  A    between atoms: _307  and  _310
REMARK  136  A    between atoms: _310  and  _311
REMARK  137  A    between atoms: _311  and  _312
REMARK  138  A    between atoms: _312  and  _313
REMARK  139  A    between atoms: _313  and  _314
REMARK  140  A    between atoms: _318  and  _320
REMARK  141  A    between atoms: _320  and  _321
REMARK  142  A    between atoms: _320  and  _323
REMARK  143  A    between atoms: _323  and  _324
REMARK  144  A    between atoms: _327  and  _329
REMARK  145  A    between atoms: _329  and  _330
REMARK  146  A    between atoms: _329  and  _332
REMARK  147  A    between atoms: _332  and  _333
REMARK  148  A    between atoms: _336  and  _338
REMARK  149  A    between atoms: _338  and  _339
REMARK  150  A    between atoms: _338  and  _341
REMARK  151  A    between atoms: _341  and  _342
REMARK  152  A    between atoms: _345  and  _347
REMARK  153  A    between atoms: _347  and  _348
REMARK  154  A    between atoms: _350  and  _352
REMARK  155  A    between atoms: _352  and  _353
REMARK  156  A    between atoms: _352  and  _355
REMARK  157  A    between atoms: _355  and  _356
REMARK  158  A    between atoms: _358  and  _360
REMARK  159  A    between atoms: _360  and  _361
REMARK  160  A    between atoms: _360  and  _363
REMARK  161  A    between atoms: _363  and  _364
REMARK  162  A    between atoms: _366  and  _368
REMARK  163  A    between atoms: _368  and  _369
REMARK  164  A    between atoms: _368  and  _371
REMARK  165  A    between atoms: _371  and  _372
REMARK  166  A    between atoms: _378  and  _380
REMARK  167  A    between atoms: _380  and  _381
REMARK  168  A    between atoms: _380  and  _383
REMARK  169  A    between atoms: _383  and  _384
REMARK  170  A    between atoms: _389  and  _391
REMARK  171  A    between atoms: _391  and  _392
REMARK  172  A    between atoms: _391  and  _394
REMARK  173  A    between atoms: _394  and  _395
REMARK  174  A    between atoms: _400  and  _402
REMARK  175  A    between atoms: _402  and  _403
REMARK  176  A    between atoms: _402  and  _405
REMARK  177  A    between atoms: _405  and  _406
REMARK  178  A    between atoms: _411  and  _413
REMARK  179  A    between atoms: _413  and  _414
REMARK  180  A    between atoms: _413  and  _416
REMARK  181  A    between atoms: _416  and  _417
REMARK  182  A    between atoms: _420  and  _422
REMARK  183  A    between atoms: _422  and  _423
REMARK  184  A    between atoms: _425  and  _427
REMARK  185  A    between atoms: _427  and  _428
REMARK  186  A    between atoms: _431  and  _433
REMARK  187  A    between atoms: _433  and  _434
REMARK  188  A    between atoms: _433  and  _436
REMARK  189  A    between atoms: _436  and  _437
REMARK  190  A    between atoms: _443  and  _445
REMARK  191  A    between atoms: _445  and  _446
REMARK  192  A    between atoms: _445  and  _448
REMARK  193  A    between atoms: _448  and  _449
REMARK  194  A    between atoms: _451  and  _453
REMARK  195  A    between atoms: _453  and  _454
REMARK  196  A    between atoms: _456  and  _458
REMARK  197  A    between atoms: _458  and  _459
REMARK  198  A    between atoms: _458  and  _461
REMARK  199  A    between atoms: _461  and  _462
REMARK  200  A    between atoms: _465  and  _467
REMARK  201  A    between atoms: _467  and  _468
REMARK  202  A    between atoms: _467  and  _470
REMARK  203  A    between atoms: _470  and  _471
REMARK  204  A    between atoms: _474  and  _476
REMARK  205  A    between atoms: _476  and  _477
REMARK  206  A    between atoms: _480  and  _482
REMARK  207  A    between atoms: _482  and  _483
REMARK  208  A    between atoms: _486  and  _488
REMARK  209  A    between atoms: _488  and  _489
REMARK  210  A    between atoms: _491  and  _493
REMARK  211  A    between atoms: _493  and  _494
REMARK  212  A    between atoms: _493  and  _496
REMARK  213  A    between atoms: _496  and  _497
REMARK                            x       y       z     vdW  Elec       q    Type
REMARK                         _______ _______ _______ _____ _____    ______ ____
ROOT
ATOM      1  O   HOH     1      24.508  29.947   2.859  0.00  0.00    +0.000 OA
ENDROOT
TORSDOF 0
REMARK  Name = ../refined-set-2016/2ews/2ews_pocket.pdb
REMARK  213 active torsions:
REMARK  status: ('A' for Active; 'I' for Inactive)
REMARK    1  A    between atoms: _1  and  _3
REMARK    2  A    between atoms: _3  and  _4
REMARK    3  A    between atoms: _3  and  _6
REMARK    4  A    between atoms: _6  and  _7
REMARK    5  A    between atoms: _10  and  _12
REMARK    6  A    between atoms: _12  and  _13
REMARK    7  A    between atoms: _16  and  _18
REMARK    8  A    between atoms: _18  and  _19
REMARK    9  A    between atoms: _21  and  _23
REMARK   10  A    between atoms: _23  and  _24
REMARK   11  A    between atoms: _26  and  _28
REMARK   12  A    between atoms: _28  and  _29
REMARK   13  A    between atoms: _28  and  _31
REMARK   14  A    between atoms: _31  and  _32
REMARK   15  A    between atoms: _35  and  _37
REMARK   16  A    between atoms: _37  and  _38
REMARK   17  A    between atoms: _37  and  _40
REMARK   18  A    between atoms: _40  and  _41
REMARK   19  A    between atoms: _44  and  _46
REMARK   20  A    between atoms: _46  and  _47
REMARK   21  A    between atoms: _46  and  _49
REMARK   22  A    between atoms: _49  and  _50
REMARK   23  A    between atoms: _53  and  _55
REMARK   24  A    between atoms: _55  and  _56
REMARK   25  A    between atoms: _55  and  _58
REMARK   26  A    between atoms: _58  and  _59
REMARK   27  A    between atoms: _59  and  _60
REMARK   28  A    between atoms: _60  and  _61
REMARK   29  A    between atoms: _61  and  _62
REMARK   30  A    between atoms: _66  and  _68
REMARK   31  A    between atoms: _68  and  _69
REMARK   32  A    between atoms: _68  and  _71
REMARK   33  A    between atoms: _71  and  _72
REMARK   34  A    between atoms: _75  and  _77
REMARK   35  A    between atoms: _77  and  _78
REMARK   36  A    between atoms: _77  and  _80
REMARK   37  A    between atoms: _80  and  _81
REMARK   38  A    between atoms: _81  and  _82
REMARK   39  A    between atoms: _85  and  _87
REMARK   40  A    between atoms: _87  and  _88
REMARK   41  A    between atoms: _87  and  _90
REMARK   42  A    between atoms: _90  and  _91
REMARK   43  A    between atoms: _94  and  _96
REMARK   44  A    between atoms: _96  and  _97
REMARK   45  A    between atoms: _96  and  _99
REMARK   46  A    between atoms: _99  and  _100
REMARK   47  A    between atoms: _103  and  _105
REMARK   48  A    between atoms: _105  and  _106
REMARK   49  A    between atoms: _105  and  _108
REMARK   50  A    between atoms: _108  and  _109
REMARK   51  A    between atoms: _109  and  _110
REMARK   52  A    between atoms: _110  and  _111
REMARK   53  A    between atoms: _111  and  _112
REMARK   54  A    between atoms: _116  and  _118
REMARK   55  A    between atoms: _118  and  _119
REMARK   56  A    between atoms: _118  and  _121
REMARK   57  A    between atoms: _121  and  _122
REMARK   58  A    between atoms: _125  and  _127
REMARK   59  A    between atoms: _127  and  _128
REMARK   60  A    between atoms: _130  and  _132
REMARK   61  A    between atoms: _132  and  _133
REMARK   62  A    between atoms: _135  and  _137
REMARK   63  A    between atoms: _137  and  _138
REMARK   64  A    between atoms: _137  and  _140
REMARK   65  A    between atoms: _140  and  _141
REMARK   66  A    between atoms: _146  and  _148
REMARK   67  A    between atoms: _148  and  _149
REMARK   68  A    between atoms: _148  and  _151
REMARK   69  A    between atoms: _151  and  _152
REMARK   70  A    between atoms: _152  and  _153
REMARK   71  A    between atoms: _156  and  _158
REMARK   72  A    between atoms: _158  and  _159
REMARK   73  A    between atoms: _158  and  _161
REMARK   74  A    between atoms: _161  and  _162
REMARK   75  A    between atoms: _168  and  _170
REMARK   76  A    between atoms: _170  and  _171
REMARK   77  A    between atoms: _170  and  _173
REMARK   78  A    between atoms: _173  and  _174
REMARK   79  A    between atoms: _179  and  _181
REMARK   80  A    between atoms: _181  and  _182
REMARK   81  A    between atoms: _181  and  _184
REMARK   82  A    between atoms: _187  and  _189
REMARK   83  A    between atoms: _189  and  _190
REMARK   84  A    between atoms: _192  and  _194
REMARK   85  A    between atoms: _194  and  _195
REMARK   86  A    between atoms: _194  and  _197
REMARK   87  A    between atoms: _197  and  _198
REMARK   88  A    between atoms: _201  and  _203
REMARK   89  A    between atoms: _203  and  _204
REMARK   90  A    between atoms: _206  and  _208
REMARK   91  A    between atoms: _208  and  _209
REMARK   92  A    between atoms: _208  and  _211
REMARK   93  A    between atoms: _211  and  _212
REMARK   94  A    between atoms: _215  and  _217
REMARK   95  A    between atoms: _217  and  _218
REMARK   96  A    between atoms: _217  and  _220
REMARK   97  A    between atoms: _220  and  _221
REMARK   98  A    between atoms: _223  and  _225
REMARK   99  A    between atoms: _225  and  _226
REMARK  100  A    between atoms: _228  and  _230
REMARK  101  A    between atoms: _230  and  _231
REMARK  102  A    between atoms: _233  and  _235
REMARK  103  A    between atoms: _235  and  _236
REMARK  104  A    between atoms: _238  and  _240
REMARK  105  A    between atoms: _240  and  _241
REMARK  106  A    between atoms: _240  and  _243
REMARK  107  A    between atoms: _243  and  _244
REMARK  108  A    between atoms: _244  and  _245
REMARK  109  A    between atoms: _247  and  _249
REMARK  110  A    between atoms: _249  and  _250
REMARK  111  A    between atoms: _249  and  _252
REMARK  112  A    between atoms: _252  and  _253
REMARK  113  A    between atoms: _256  and  _258
REMARK  114  A    between atoms: _258  and  _259
REMARK  115  A    between atoms: _258  and  _261
REMARK  116  A    between atoms: _261  and  _262
REMARK  117  A    between atoms: _262  and  _263
REMARK  118  A    between atoms: _268  and  _270
REMARK  119  A    between atoms: _270  and  _271
REMARK  120  A    between atoms: _273  and  _275
REMARK  121  A    between atoms: _275  and  _276
REMARK  122  A    between atoms: _275  and  _278
REMARK  123  A    between atoms: _278  and  _279
REMARK  124  A    between atoms: _282  and  _284
REMARK  125  A    between atoms: _284  and  _285
REMARK  126  A    between atoms: _284  and  _287
REMARK  127  A    between atoms: _287  and  _288
REMARK  128  A    between atoms: _291  and  _293
REMARK  129  A    between atoms: _293  and  _294
REMARK  130  A    between atoms: _293  and  _296
REMARK  131  A    between atoms: _296  and  _297
REMARK  132  A    between atoms: _302  and  _303
REMARK  133  A    between atoms: _305  and  _307
REMARK  134  A    between atoms: _307  and  _308
REMARK  135  A    between atoms: _307  and  _310
REMARK  136  A    between atoms: _310  and  _311
REMARK  137  A    between atoms: _311  and  _312
REMARK  138  A    between atoms: _312  and  _313
REMARK  139  A    between atoms: _313  and  _314
REMARK  140  A    between atoms: _318  and  _320
REMARK  141  A    between atoms: _320  and  _321
REMARK  142  A    between atoms: _320  and  _323
REMARK  143  A    between atoms: _323  and  _324
REMARK  144  A    between atoms: _327  and  _329
REMARK  145  A    between atoms: _329  and  _330
REMARK  146  A    between atoms: _329  and  _332
REMARK  147  A    between atoms: _332  and  _333
REMARK  148  A    between atoms: _336  and  _338
REMARK  149  A    between atoms: _338  and  _339
REMARK  150  A    between atoms: _338  and  _341
REMARK  151  A    between atoms: _341  and  _342
REMARK  152  A    between atoms: _345  and  _347
REMARK  153  A    between atoms: _347  and  _348
REMARK  154  A    between atoms: _350  and  _352
REMARK  155  A    between atoms: _352  and  _353
REMARK  156  A    between atoms: _352  and  _355
REMARK  157  A    between atoms: _355  and  _356
REMARK  158  A    between atoms: _358  and  _360
REMARK  159  A    between atoms: _360  and  _361
REMARK  160  A    between atoms: _360  and  _363
REMARK  161  A    between atoms: _363  and  _364
REMARK  162  A    between atoms: _366  and  _368
REMARK  163  A    between atoms: _368  and  _369
REMARK  164  A    between atoms: _368  and  _371
REMARK  165  A    between atoms: _371  and  _372
REMARK  166  A    between atoms: _378  and  _380
REMARK  167  A    between atoms: _380  and  _381
REMARK  168  A    between atoms: _380  and  _383
REMARK  169  A    between atoms: _383  and  _384
REMARK  170  A    between atoms: _389  and  _391
REMARK  171  A    between atoms: _391  and  _392
REMARK  172  A    between atoms: _391  and  _394
REMARK  173  A    between atoms: _394  and  _395
REMARK  174  A    between atoms: _400  and  _402
REMARK  175  A    between atoms: _402  and  _403
REMARK  176  A    between atoms: _402  and  _405
REMARK  177  A    between atoms: _405  and  _406
REMARK  178  A    between atoms: _411  and  _413
REMARK  179  A    between atoms: _413  and  _414
REMARK  180  A    between atoms: _413  and  _416
REMARK  181  A    between atoms: _416  and  _417
REMARK  182  A    between atoms: _420  and  _422
REMARK  183  A    between atoms: _422  and  _423
REMARK  184  A    between atoms: _425  and  _427
REMARK  185  A    between atoms: _427  and  _428
REMARK  186  A    between atoms: _431  and  _433
REMARK  187  A    between atoms: _433  and  _434
REMARK  188  A    between atoms: _433  and  _436
REMARK  189  A    between atoms: _436  and  _437
REMARK  190  A    between atoms: _443  and  _445
REMARK  191  A    between atoms: _445  and  _446
REMARK  192  A    between atoms: _445  and  _448
REMARK  193  A    between atoms: _448  and  _449
REMARK  194  A    between atoms: _451  and  _453
REMARK  195  A    between atoms: _453  and  _454
REMARK  196  A    between atoms: _456  and  _458
REMARK  197  A    between atoms: _458  and  _459
REMARK  198  A    between atoms: _458  and  _461
REMARK  199  A    between atoms: _461  and  _462
REMARK  200  A    between atoms: _465  and  _467
REMARK  201  A    between atoms: _467  and  _468
REMARK  202  A    between atoms: _467  and  _470
REMARK  203  A    between atoms: _470  and  _471
REMARK  204  A    between atoms: _474  and  _476
REMARK  205  A    between atoms: _476  and  _477
REMARK  206  A    between atoms: _480  and  _482
REMARK  207  A    between atoms: _482  and  _483
REMARK  208  A    between atoms: _486  and  _488
REMARK  209  A    between atoms: _488  and  _489
REMARK  210  A    between atoms: _491  and  _493
REMARK  211  A    between atoms: _493  and  _494
REMARK  212  A    between atoms: _493  and  _496
REMARK  213  A    between atoms: _496  and  _497
REMARK                            x       y       z     vdW  Elec       q    Type
REMARK                         _______ _______ _______ _____ _____    ______ ____
ROOT
ATOM      1  O   HOH     1      22.459  22.975  -3.578  0.00  0.00    +0.000 OA
ENDROOT
TORSDOF 0
REMARK  Name = ../refined-set-2016/2ews/2ews_pocket.pdb
REMARK  213 active torsions:
REMARK  status: ('A' for Active; 'I' for Inactive)
REMARK    1  A    between atoms: _1  and  _3
REMARK    2  A    between atoms: _3  and  _4
REMARK    3  A    between atoms: _3  and  _6
REMARK    4  A    between atoms: _6  and  _7
REMARK    5  A    between atoms: _10  and  _12
REMARK    6  A    between atoms: _12  and  _13
REMARK    7  A    between atoms: _16  and  _18
REMARK    8  A    between atoms: _18  and  _19
REMARK    9  A    between atoms: _21  and  _23
REMARK   10  A    between atoms: _23  and  _24
REMARK   11  A    between atoms: _26  and  _28
REMARK   12  A    between atoms: _28  and  _29
REMARK   13  A    between atoms: _28  and  _31
REMARK   14  A    between atoms: _31  and  _32
REMARK   15  A    between atoms: _35  and  _37
REMARK   16  A    between atoms: _37  and  _38
REMARK   17  A    between atoms: _37  and  _40
REMARK   18  A    between atoms: _40  and  _41
REMARK   19  A    between atoms: _44  and  _46
REMARK   20  A    between atoms: _46  and  _47
REMARK   21  A    between atoms: _46  and  _49
REMARK   22  A    between atoms: _49  and  _50
REMARK   23  A    between atoms: _53  and  _55
REMARK   24  A    between atoms: _55  and  _56
REMARK   25  A    between atoms: _55  and  _58
REMARK   26  A    between atoms: _58  and  _59
REMARK   27  A    between atoms: _59  and  _60
REMARK   28  A    between atoms: _60  and  _61
REMARK   29  A    between atoms: _61  and  _62
REMARK   30  A    between atoms: _66  and  _68
REMARK   31  A    between atoms: _68  and  _69
REMARK   32  A    between atoms: _68  and  _71
REMARK   33  A    between atoms: _71  and  _72
REMARK   34  A    between atoms: _75  and  _77
REMARK   35  A    between atoms: _77  and  _78
REMARK   36  A    between atoms: _77  and  _80
REMARK   37  A    between atoms: _80  and  _81
REMARK   38  A    between atoms: _81  and  _82
REMARK   39  A    between atoms: _85  and  _87
REMARK   40  A    between atoms: _87  and  _88
REMARK   41  A    between atoms: _87  and  _90
REMARK   42  A    between atoms: _90  and  _91
REMARK   43  A    between atoms: _94  and  _96
REMARK   44  A    between atoms: _96  and  _97
REMARK   45  A    between atoms: _96  and  _99
REMARK   46  A    between atoms: _99  and  _100
REMARK   47  A    between atoms: _103  and  _105
REMARK   48  A    between atoms: _105  and  _106
REMARK   49  A    between atoms: _105  and  _108
REMARK   50  A    between atoms: _108  and  _109
REMARK   51  A    between atoms: _109  and  _110
REMARK   52  A    between atoms: _110  and  _111
REMARK   53  A    between atoms: _111  and  _112
REMARK   54  A    between atoms: _116  and  _118
REMARK   55  A    between atoms: _118  and  _119
REMARK   56  A    between atoms: _118  and  _121
REMARK   57  A    between atoms: _121  and  _122
REMARK   58  A    between atoms: _125  and  _127
REMARK   59  A    between atoms: _127  and  _128
REMARK   60  A    between atoms: _130  and  _132
REMARK   61  A    between atoms: _132  and  _133
REMARK   62  A    between atoms: _135  and  _137
REMARK   63  A    between atoms: _137  and  _138
REMARK   64  A    between atoms: _137  and  _140
REMARK   65  A    between atoms: _140  and  _141
REMARK   66  A    between atoms: _146  and  _148
REMARK   67  A    between atoms: _148  and  _149
REMARK   68  A    between atoms: _148  and  _151
REMARK   69  A    between atoms: _151  and  _152
REMARK   70  A    between atoms: _152  and  _153
REMARK   71  A    between atoms: _156  and  _158
REMARK   72  A    between atoms: _158  and  _159
REMARK   73  A    between atoms: _158  and  _161
REMARK   74  A    between atoms: _161  and  _162
REMARK   75  A    between atoms: _168  and  _170
REMARK   76  A    between atoms: _170  and  _171
REMARK   77  A    between atoms: _170  and  _173
REMARK   78  A    between atoms: _173  and  _174
REMARK   79  A    between atoms: _179  and  _181
REMARK   80  A    between atoms: _181  and  _182
REMARK   81  A    between atoms: _181  and  _184
REMARK   82  A    between atoms: _187  and  _189
REMARK   83  A    between atoms: _189  and  _190
REMARK   84  A    between atoms: _192  and  _194
REMARK   85  A    between atoms: _194  and  _195
REMARK   86  A    between atoms: _194  and  _197
REMARK   87  A    between atoms: _197  and  _198
REMARK   88  A    between atoms: _201  and  _203
REMARK   89  A    between atoms: _203  and  _204
REMARK   90  A    between atoms: _206  and  _208
REMARK   91  A    between atoms: _208  and  _209
REMARK   92  A    between atoms: _208  and  _211
REMARK   93  A    between atoms: _211  and  _212
REMARK   94  A    between atoms: _215  and  _217
REMARK   95  A    between atoms: _217  and  _218
REMARK   96  A    between atoms: _217  and  _220
REMARK   97  A    between atoms: _220  and  _221
REMARK   98  A    between atoms: _223  and  _225
REMARK   99  A    between atoms: _225  and  _226
REMARK  100  A    between atoms: _228  and  _230
REMARK  101  A    between atoms: _230  and  _231
REMARK  102  A    between atoms: _233  and  _235
REMARK  103  A    between atoms: _235  and  _236
REMARK  104  A    between atoms: _238  and  _240
REMARK  105  A    between atoms: _240  and  _241
REMARK  106  A    between atoms: _240  and  _243
REMARK  107  A    between atoms: _243  and  _244
REMARK  108  A    between atoms: _244  and  _245
REMARK  109  A    between atoms: _247  and  _249
REMARK  110  A    between atoms: _249  and  _250
REMARK  111  A    between atoms: _249  and  _252
REMARK  112  A    between atoms: _252  and  _253
REMARK  113  A    between atoms: _256  and  _258
REMARK  114  A    between atoms: _258  and  _259
REMARK  115  A    between atoms: _258  and  _261
REMARK  116  A    between atoms: _261  and  _262
REMARK  117  A    between atoms: _262  and  _263
REMARK  118  A    between atoms: _268  and  _270
REMARK  119  A    between atoms: _270  and  _271
REMARK  120  A    between atoms: _273  and  _275
REMARK  121  A    between atoms: _275  and  _276
REMARK  122  A    between atoms: _275  and  _278
REMARK  123  A    between atoms: _278  and  _279
REMARK  124  A    between atoms: _282  and  _284
REMARK  125  A    between atoms: _284  and  _285
REMARK  126  A    between atoms: _284  and  _287
REMARK  127  A    between atoms: _287  and  _288
REMARK  128  A    between atoms: _291  and  _293
REMARK  129  A    between atoms: _293  and  _294
REMARK  130  A    between atoms: _293  and  _296
REMARK  131  A    between atoms: _296  and  _297
REMARK  132  A    between atoms: _302  and  _303
REMARK  133  A    between atoms: _305  and  _307
REMARK  134  A    between atoms: _307  and  _308
REMARK  135  A    between atoms: _307  and  _310
REMARK  136  A    between atoms: _310  and  _311
REMARK  137  A    between atoms: _311  and  _312
REMARK  138  A    between atoms: _312  and  _313
REMARK  139  A    between atoms: _313  and  _314
REMARK  140  A    between atoms: _318  and  _320
REMARK  141  A    between atoms: _320  and  _321
REMARK  142  A    between atoms: _320  and  _323
REMARK  143  A    between atoms: _323  and  _324
REMARK  144  A    between atoms: _327  and  _329
REMARK  145  A    between atoms: _329  and  _330
REMARK  146  A    between atoms: _329  and  _332
REMARK  147  A    between atoms: _332  and  _333
REMARK  148  A    between atoms: _336  and  _338
REMARK  149  A    between atoms: _338  and  _339
REMARK  150  A    between atoms: _338  and  _341
REMARK  151  A    between atoms: _341  and  _342
REMARK  152  A    between atoms: _345  and  _347
REMARK  153  A    between atoms: _347  and  _348
REMARK  154  A    between atoms: _350  and  _352
REMARK  155  A    between atoms: _352  and  _353
REMARK  156  A    between atoms: _352  and  _355
REMARK  157  A    between atoms: _355  and  _356
REMARK  158  A    between atoms: _358  and  _360
REMARK  159  A    between atoms: _360  and  _361
REMARK  160  A    between atoms: _360  and  _363
REMARK  161  A    between atoms: _363  and  _364
REMARK  162  A    between atoms: _366  and  _368
REMARK  163  A    between atoms: _368  and  _369
REMARK  164  A    between atoms: _368  and  _371
REMARK  165  A    between atoms: _371  and  _372
REMARK  166  A    between atoms: _378  and  _380
REMARK  167  A    between atoms: _380  and  _381
REMARK  168  A    between atoms: _380  and  _383
REMARK  169  A    between atoms: _383  and  _384
REMARK  170  A    between atoms: _389  and  _391
REMARK  171  A    between atoms: _391  and  _392
REMARK  172  A    between atoms: _391  and  _394
REMARK  173  A    between atoms: _394  and  _395
REMARK  174  A    between atoms: _400  and  _402
REMARK  175  A    between atoms: _402  and  _403
REMARK  176  A    between atoms: _402  and  _405
REMARK  177  A    between atoms: _405  and  _406
REMARK  178  A    between atoms: _411  and  _413
REMARK  179  A    between atoms: _413  and  _414
REMARK  180  A    between atoms: _413  and  _416
REMARK  181  A    between atoms: _416  and  _417
REMARK  182  A    between atoms: _420  and  _422
REMARK  183  A    between atoms: _422  and  _423
REMARK  184  A    between atoms: _425  and  _427
REMARK  185  A    between atoms: _427  and  _428
REMARK  186  A    between atoms: _431  and  _433
REMARK  187  A    between atoms: _433  and  _434
REMARK  188  A    between atoms: _433  and  _436
REMARK  189  A    between atoms: _436  and  _437
REMARK  190  A    between atoms: _443  and  _445
REMARK  191  A    between atoms: _445  and  _446
REMARK  192  A    between atoms: _445  and  _448
REMARK  193  A    between atoms: _448  and  _449
REMARK  194  A    between atoms: _451  and  _453
REMARK  195  A    between atoms: _453  and  _454
REMARK  196  A    between atoms: _456  and  _458
REMARK  197  A    between atoms: _458  and  _459
REMARK  198  A    between atoms: _458  and  _461
REMARK  199  A    between atoms: _461  and  _462
REMARK  200  A    between atoms: _465  and  _467
REMARK  201  A    between atoms: _467  and  _468
REMARK  202  A    between atoms: _467  and  _470
REMARK  203  A    between atoms: _470  and  _471
REMARK  204  A    between atoms: _474  and  _476
REMARK  205  A    between atoms: _476  and  _477
REMARK  206  A    between atoms: _480  and  _482
REMARK  207  A    between atoms: _482  and  _483
REMARK  208  A    between atoms: _486  and  _488
REMARK  209  A    between atoms: _488  and  _489
REMARK  210  A    between atoms: _491  and  _493
REMARK  211  A    between atoms: _493  and  _494
REMARK  212  A    between atoms: _493  and  _496
REMARK  213  A    between atoms: _496  and  _497
REMARK                            x       y       z     vdW  Elec       q    Type
REMARK                         _______ _______ _______ _____ _____    ______ ____
ROOT
ATOM      1  O   HOH     1      22.143  27.276  -3.242  0.00  0.00    +0.000 OA
ENDROOT
TORSDOF 0
REMARK  Name = ../refined-set-2016/2ews/2ews_pocket.pdb
REMARK  213 active torsions:
REMARK  status: ('A' for Active; 'I' for Inactive)
REMARK    1  A    between atoms: _1  and  _3
REMARK    2  A    between atoms: _3  and  _4
REMARK    3  A    between atoms: _3  and  _6
REMARK    4  A    between atoms: _6  and  _7
REMARK    5  A    between atoms: _10  and  _12
REMARK    6  A    between atoms: _12  and  _13
REMARK    7  A    between atoms: _16  and  _18
REMARK    8  A    between atoms: _18  and  _19
REMARK    9  A    between atoms: _21  and  _23
REMARK   10  A    between atoms: _23  and  _24
REMARK   11  A    between atoms: _26  and  _28
REMARK   12  A    between atoms: _28  and  _29
REMARK   13  A    between atoms: _28  and  _31
REMARK   14  A    between atoms: _31  and  _32
REMARK   15  A    between atoms: _35  and  _37
REMARK   16  A    between atoms: _37  and  _38
REMARK   17  A    between atoms: _37  and  _40
REMARK   18  A    between atoms: _40  and  _41
REMARK   19  A    between atoms: _44  and  _46
REMARK   20  A    between atoms: _46  and  _47
REMARK   21  A    between atoms: _46  and  _49
REMARK   22  A    between atoms: _49  and  _50
REMARK   23  A    between atoms: _53  and  _55
REMARK   24  A    between atoms: _55  and  _56
REMARK   25  A    between atoms: _55  and  _58
REMARK   26  A    between atoms: _58  and  _59
REMARK   27  A    between atoms: _59  and  _60
REMARK   28  A    between atoms: _60  and  _61
REMARK   29  A    between atoms: _61  and  _62
REMARK   30  A    between atoms: _66  and  _68
REMARK   31  A    between atoms: _68  and  _69
REMARK   32  A    between atoms: _68  and  _71
REMARK   33  A    between atoms: _71  and  _72
REMARK   34  A    between atoms: _75  and  _77
REMARK   35  A    between atoms: _77  and  _78
REMARK   36  A    between atoms: _77  and  _80
REMARK   37  A    between atoms: _80  and  _81
REMARK   38  A    between atoms: _81  and  _82
REMARK   39  A    between atoms: _85  and  _87
REMARK   40  A    between atoms: _87  and  _88
REMARK   41  A    between atoms: _87  and  _90
REMARK   42  A    between atoms: _90  and  _91
REMARK   43  A    between atoms: _94  and  _96
REMARK   44  A    between atoms: _96  and  _97
REMARK   45  A    between atoms: _96  and  _99
REMARK   46  A    between atoms: _99  and  _100
REMARK   47  A    between atoms: _103  and  _105
REMARK   48  A    between atoms: _105  and  _106
REMARK   49  A    between atoms: _105  and  _108
REMARK   50  A    between atoms: _108  and  _109
REMARK   51  A    between atoms: _109  and  _110
REMARK   52  A    between atoms: _110  and  _111
REMARK   53  A    between atoms: _111  and  _112
REMARK   54  A    between atoms: _116  and  _118
REMARK   55  A    between atoms: _118  and  _119
REMARK   56  A    between atoms: _118  and  _121
REMARK   57  A    between atoms: _121  and  _122
REMARK   58  A    between atoms: _125  and  _127
REMARK   59  A    between atoms: _127  and  _128
REMARK   60  A    between atoms: _130  and  _132
REMARK   61  A    between atoms: _132  and  _133
REMARK   62  A    between atoms: _135  and  _137
REMARK   63  A    between atoms: _137  and  _138
REMARK   64  A    between atoms: _137  and  _140
REMARK   65  A    between atoms: _140  and  _141
REMARK   66  A    between atoms: _146  and  _148
REMARK   67  A    between atoms: _148  and  _149
REMARK   68  A    between atoms: _148  and  _151
REMARK   69  A    between atoms: _151  and  _152
REMARK   70  A    between atoms: _152  and  _153
REMARK   71  A    between atoms: _156  and  _158
REMARK   72  A    between atoms: _158  and  _159
REMARK   73  A    between atoms: _158  and  _161
REMARK   74  A    between atoms: _161  and  _162
REMARK   75  A    between atoms: _168  and  _170
REMARK   76  A    between atoms: _170  and  _171
REMARK   77  A    between atoms: _170  and  _173
REMARK   78  A    between atoms: _173  and  _174
REMARK   79  A    between atoms: _179  and  _181
REMARK   80  A    between atoms: _181  and  _182
REMARK   81  A    between atoms: _181  and  _184
REMARK   82  A    between atoms: _187  and  _189
REMARK   83  A    between atoms: _189  and  _190
REMARK   84  A    between atoms: _192  and  _194
REMARK   85  A    between atoms: _194  and  _195
REMARK   86  A    between atoms: _194  and  _197
REMARK   87  A    between atoms: _197  and  _198
REMARK   88  A    between atoms: _201  and  _203
REMARK   89  A    between atoms: _203  and  _204
REMARK   90  A    between atoms: _206  and  _208
REMARK   91  A    between atoms: _208  and  _209
REMARK   92  A    between atoms: _208  and  _211
REMARK   93  A    between atoms: _211  and  _212
REMARK   94  A    between atoms: _215  and  _217
REMARK   95  A    between atoms: _217  and  _218
REMARK   96  A    between atoms: _217  and  _220
REMARK   97  A    between atoms: _220  and  _221
REMARK   98  A    between atoms: _223  and  _225
REMARK   99  A    between atoms: _225  and  _226
REMARK  100  A    between atoms: _228  and  _230
REMARK  101  A    between atoms: _230  and  _231
REMARK  102  A    between atoms: _233  and  _235
REMARK  103  A    between atoms: _235  and  _236
REMARK  104  A    between atoms: _238  and  _240
REMARK  105  A    between atoms: _240  and  _241
REMARK  106  A    between atoms: _240  and  _243
REMARK  107  A    between atoms: _243  and  _244
REMARK  108  A    between atoms: _244  and  _245
REMARK  109  A    between atoms: _247  and  _249
REMARK  110  A    between atoms: _249  and  _250
REMARK  111  A    between atoms: _249  and  _252
REMARK  112  A    between atoms: _252  and  _253
REMARK  113  A    between atoms: _256  and  _258
REMARK  114  A    between atoms: _258  and  _259
REMARK  115  A    between atoms: _258  and  _261
REMARK  116  A    between atoms: _261  and  _262
REMARK  117  A    between atoms: _262  and  _263
REMARK  118  A    between atoms: _268  and  _270
REMARK  119  A    between atoms: _270  and  _271
REMARK  120  A    between atoms: _273  and  _275
REMARK  121  A    between atoms: _275  and  _276
REMARK  122  A    between atoms: _275  and  _278
REMARK  123  A    between atoms: _278  and  _279
REMARK  124  A    between atoms: _282  and  _284
REMARK  125  A    between atoms: _284  and  _285
REMARK  126  A    between atoms: _284  and  _287
REMARK  127  A    between atoms: _287  and  _288
REMARK  128  A    between atoms: _291  and  _293
REMARK  129  A    between atoms: _293  and  _294
REMARK  130  A    between atoms: _293  and  _296
REMARK  131  A    between atoms: _296  and  _297
REMARK  132  A    between atoms: _302  and  _303
REMARK  133  A    between atoms: _305  and  _307
REMARK  134  A    between atoms: _307  and  _308
REMARK  135  A    between atoms: _307  and  _310
REMARK  136  A    between atoms: _310  and  _311
REMARK  137  A    between atoms: _311  and  _312
REMARK  138  A    between atoms: _312  and  _313
REMARK  139  A    between atoms: _313  and  _314
REMARK  140  A    between atoms: _318  and  _320
REMARK  141  A    between atoms: _320  and  _321
REMARK  142  A    between atoms: _320  and  _323
REMARK  143  A    between atoms: _323  and  _324
REMARK  144  A    between atoms: _327  and  _329
REMARK  145  A    between atoms: _329  and  _330
REMARK  146  A    between atoms: _329  and  _332
REMARK  147  A    between atoms: _332  and  _333
REMARK  148  A    between atoms: _336  and  _338
REMARK  149  A    between atoms: _338  and  _339
REMARK  150  A    between atoms: _338  and  _341
REMARK  151  A    between atoms: _341  and  _342
REMARK  152  A    between atoms: _345  and  _347
REMARK  153  A    between atoms: _347  and  _348
REMARK  154  A    between atoms: _350  and  _352
REMARK  155  A    between atoms: _352  and  _353
REMARK  156  A    between atoms: _352  and  _355
REMARK  157  A    between atoms: _355  and  _356
REMARK  158  A    between atoms: _358  and  _360
REMARK  159  A    between atoms: _360  and  _361
REMARK  160  A    between atoms: _360  and  _363
REMARK  161  A    between atoms: _363  and  _364
REMARK  162  A    between atoms: _366  and  _368
REMARK  163  A    between atoms: _368  and  _369
REMARK  164  A    between atoms: _368  and  _371
REMARK  165  A    between atoms: _371  and  _372
REMARK  166  A    between atoms: _378  and  _380
REMARK  167  A    between atoms: _380  and  _381
REMARK  168  A    between atoms: _380  and  _383
REMARK  169  A    between atoms: _383  and  _384
REMARK  170  A    between atoms: _389  and  _391
REMARK  171  A    between atoms: _391  and  _392
REMARK  172  A    between atoms: _391  and  _394
REMARK  173  A    between atoms: _394  and  _395
REMARK  174  A    between atoms: _400  and  _402
REMARK  175  A    between atoms: _402  and  _403
REMARK  176  A    between atoms: _402  and  _405
REMARK  177  A    between atoms: _405  and  _406
REMARK  178  A    between atoms: _411  and  _413
REMARK  179  A    between atoms: _413  and  _414
REMARK  180  A    between atoms: _413  and  _416
REMARK  181  A    between atoms: _416  and  _417
REMARK  182  A    between atoms: _420  and  _422
REMARK  183  A    between atoms: _422  and  _423
REMARK  184  A    between atoms: _425  and  _427
REMARK  185  A    between atoms: _427  and  _428
REMARK  186  A    between atoms: _431  and  _433
REMARK  187  A    between atoms: _433  and  _434
REMARK  188  A    between atoms: _433  and  _436
REMARK  189  A    between atoms: _436  and  _437
REMARK  190  A    between atoms: _443  and  _445
REMARK  191  A    between atoms: _445  and  _446
REMARK  192  A    between atoms: _445  and  _448
REMARK  193  A    between atoms: _448  and  _449
REMARK  194  A    between atoms: _451  and  _453
REMARK  195  A    between atoms: _453  and  _454
REMARK  196  A    between atoms: _456  and  _458
REMARK  197  A    between atoms: _458  and  _459
REMARK  198  A    between atoms: _458  and  _461
REMARK  199  A    between atoms: _461  and  _462
REMARK  200  A    between atoms: _465  and  _467
REMARK  201  A    between atoms: _467  and  _468
REMARK  202  A    between atoms: _467  and  _470
REMARK  203  A    between atoms: _470  and  _471
REMARK  204  A    between atoms: _474  and  _476
REMARK  205  A    between atoms: _476  and  _477
REMARK  206  A    between atoms: _480  and  _482
REMARK  207  A    between atoms: _482  and  _483
REMARK  208  A    between atoms: _486  and  _488
REMARK  209  A    between atoms: _488  and  _489
REMARK  210  A    between atoms: _491  and  _493
REMARK  211  A    between atoms: _493  and  _494
REMARK  212  A    between atoms: _493  and  _496
REMARK  213  A    between atoms: _496  and  _497
REMARK                            x       y       z     vdW  Elec       q    Type
REMARK                         _______ _______ _______ _____ _____    ______ ____
ROOT
ATOM      1  O   HOH     1      24.101  25.298  -2.296  0.00  0.00    +0.000 OA
ENDROOT
TORSDOF 0
REMARK  Name = ../refined-set-2016/2ews/2ews_pocket.pdb
REMARK  213 active torsions:
REMARK  status: ('A' for Active; 'I' for Inactive)
REMARK    1  A    between atoms: _1  and  _3
REMARK    2  A    between atoms: _3  and  _4
REMARK    3  A    between atoms: _3  and  _6
REMARK    4  A    between atoms: _6  and  _7
REMARK    5  A    between atoms: _10  and  _12
REMARK    6  A    between atoms: _12  and  _13
REMARK    7  A    between atoms: _16  and  _18
REMARK    8  A    between atoms: _18  and  _19
REMARK    9  A    between atoms: _21  and  _23
REMARK   10  A    between atoms: _23  and  _24
REMARK   11  A    between atoms: _26  and  _28
REMARK   12  A    between atoms: _28  and  _29
REMARK   13  A    between atoms: _28  and  _31
REMARK   14  A    between atoms: _31  and  _32
REMARK   15  A    between atoms: _35  and  _37
REMARK   16  A    between atoms: _37  and  _38
REMARK   17  A    between atoms: _37  and  _40
REMARK   18  A    between atoms: _40  and  _41
REMARK   19  A    between atoms: _44  and  _46
REMARK   20  A    between atoms: _46  and  _47
REMARK   21  A    between atoms: _46  and  _49
REMARK   22  A    between atoms: _49  and  _50
REMARK   23  A    between atoms: _53  and  _55
REMARK   24  A    between atoms: _55  and  _56
REMARK   25  A    between atoms: _55  and  _58
REMARK   26  A    between atoms: _58  and  _59
REMARK   27  A    between atoms: _59  and  _60
REMARK   28  A    between atoms: _60  and  _61
REMARK   29  A    between atoms: _61  and  _62
REMARK   30  A    between atoms: _66  and  _68
REMARK   31  A    between atoms: _68  and  _69
REMARK   32  A    between atoms: _68  and  _71
REMARK   33  A    between atoms: _71  and  _72
REMARK   34  A    between atoms: _75  and  _77
REMARK   35  A    between atoms: _77  and  _78
REMARK   36  A    between atoms: _77  and  _80
REMARK   37  A    between atoms: _80  and  _81
REMARK   38  A    between atoms: _81  and  _82
REMARK   39  A    between atoms: _85  and  _87
REMARK   40  A    between atoms: _87  and  _88
REMARK   41  A    between atoms: _87  and  _90
REMARK   42  A    between atoms: _90  and  _91
REMARK   43  A    between atoms: _94  and  _96
REMARK   44  A    between atoms: _96  and  _97
REMARK   45  A    between atoms: _96  and  _99
REMARK   46  A    between atoms: _99  and  _100
REMARK   47  A    between atoms: _103  and  _105
REMARK   48  A    between atoms: _105  and  _106
REMARK   49  A    between atoms: _105  and  _108
REMARK   50  A    between atoms: _108  and  _109
REMARK   51  A    between atoms: _109  and  _110
REMARK   52  A    between atoms: _110  and  _111
REMARK   53  A    between atoms: _111  and  _112
REMARK   54  A    between atoms: _116  and  _118
REMARK   55  A    between atoms: _118  and  _119
REMARK   56  A    between atoms: _118  and  _121
REMARK   57  A    between atoms: _121  and  _122
REMARK   58  A    between atoms: _125  and  _127
REMARK   59  A    between atoms: _127  and  _128
REMARK   60  A    between atoms: _130  and  _132
REMARK   61  A    between atoms: _132  and  _133
REMARK   62  A    between atoms: _135  and  _137
REMARK   63  A    between atoms: _137  and  _138
REMARK   64  A    between atoms: _137  and  _140
REMARK   65  A    between atoms: _140  and  _141
REMARK   66  A    between atoms: _146  and  _148
REMARK   67  A    between atoms: _148  and  _149
REMARK   68  A    between atoms: _148  and  _151
REMARK   69  A    between atoms: _151  and  _152
REMARK   70  A    between atoms: _152  and  _153
REMARK   71  A    between atoms: _156  and  _158
REMARK   72  A    between atoms: _158  and  _159
REMARK   73  A    between atoms: _158  and  _161
REMARK   74  A    between atoms: _161  and  _162
REMARK   75  A    between atoms: _168  and  _170
REMARK   76  A    between atoms: _170  and  _171
REMARK   77  A    between atoms: _170  and  _173
REMARK   78  A    between atoms: _173  and  _174
REMARK   79  A    between atoms: _179  and  _181
REMARK   80  A    between atoms: _181  and  _182
REMARK   81  A    between atoms: _181  and  _184
REMARK   82  A    between atoms: _187  and  _189
REMARK   83  A    between atoms: _189  and  _190
REMARK   84  A    between atoms: _192  and  _194
REMARK   85  A    between atoms: _194  and  _195
REMARK   86  A    between atoms: _194  and  _197
REMARK   87  A    between atoms: _197  and  _198
REMARK   88  A    between atoms: _201  and  _203
REMARK   89  A    between atoms: _203  and  _204
REMARK   90  A    between atoms: _206  and  _208
REMARK   91  A    between atoms: _208  and  _209
REMARK   92  A    between atoms: _208  and  _211
REMARK   93  A    between atoms: _211  and  _212
REMARK   94  A    between atoms: _215  and  _217
REMARK   95  A    between atoms: _217  and  _218
REMARK   96  A    between atoms: _217  and  _220
REMARK   97  A    between atoms: _220  and  _221
REMARK   98  A    between atoms: _223  and  _225
REMARK   99  A    between atoms: _225  and  _226
REMARK  100  A    between atoms: _228  and  _230
REMARK  101  A    between atoms: _230  and  _231
REMARK  102  A    between atoms: _233  and  _235
REMARK  103  A    between atoms: _235  and  _236
REMARK  104  A    between atoms: _238  and  _240
REMARK  105  A    between atoms: _240  and  _241
REMARK  106  A    between atoms: _240  and  _243
REMARK  107  A    between atoms: _243  and  _244
REMARK  108  A    between atoms: _244  and  _245
REMARK  109  A    between atoms: _247  and  _249
REMARK  110  A    between atoms: _249  and  _250
REMARK  111  A    between atoms: _249  and  _252
REMARK  112  A    between atoms: _252  and  _253
REMARK  113  A    between atoms: _256  and  _258
REMARK  114  A    between atoms: _258  and  _259
REMARK  115  A    between atoms: _258  and  _261
REMARK  116  A    between atoms: _261  and  _262
REMARK  117  A    between atoms: _262  and  _263
REMARK  118  A    between atoms: _268  and  _270
REMARK  119  A    between atoms: _270  and  _271
REMARK  120  A    between atoms: _273  and  _275
REMARK  121  A    between atoms: _275  and  _276
REMARK  122  A    between atoms: _275  and  _278
REMARK  123  A    between atoms: _278  and  _279
REMARK  124  A    between atoms: _282  and  _284
REMARK  125  A    between atoms: _284  and  _285
REMARK  126  A    between atoms: _284  and  _287
REMARK  127  A    between atoms: _287  and  _288
REMARK  128  A    between atoms: _291  and  _293
REMARK  129  A    between atoms: _293  and  _294
REMARK  130  A    between atoms: _293  and  _296
REMARK  131  A    between atoms: _296  and  _297
REMARK  132  A    between atoms: _302  and  _303
REMARK  133  A    between atoms: _305  and  _307
REMARK  134  A    between atoms: _307  and  _308
REMARK  135  A    between atoms: _307  and  _310
REMARK  136  A    between atoms: _310  and  _311
REMARK  137  A    between atoms: _311  and  _312
REMARK  138  A    between atoms: _312  and  _313
REMARK  139  A    between atoms: _313  and  _314
REMARK  140  A    between atoms: _318  and  _320
REMARK  141  A    between atoms: _320  and  _321
REMARK  142  A    between atoms: _320  and  _323
REMARK  143  A    between atoms: _323  and  _324
REMARK  144  A    between atoms: _327  and  _329
REMARK  145  A    between atoms: _329  and  _330
REMARK  146  A    between atoms: _329  and  _332
REMARK  147  A    between atoms: _332  and  _333
REMARK  148  A    between atoms: _336  and  _338
REMARK  149  A    between atoms: _338  and  _339
REMARK  150  A    between atoms: _338  and  _341
REMARK  151  A    between atoms: _341  and  _342
REMARK  152  A    between atoms: _345  and  _347
REMARK  153  A    between atoms: _347  and  _348
REMARK  154  A    between atoms: _350  and  _352
REMARK  155  A    between atoms: _352  and  _353
REMARK  156  A    between atoms: _352  and  _355
REMARK  157  A    between atoms: _355  and  _356
REMARK  158  A    between atoms: _358  and  _360
REMARK  159  A    between atoms: _360  and  _361
REMARK  160  A    between atoms: _360  and  _363
REMARK  161  A    between atoms: _363  and  _364
REMARK  162  A    between atoms: _366  and  _368
REMARK  163  A    between atoms: _368  and  _369
REMARK  164  A    between atoms: _368  and  _371
REMARK  165  A    between atoms: _371  and  _372
REMARK  166  A    between atoms: _378  and  _380
REMARK  167  A    between atoms: _380  and  _381
REMARK  168  A    between atoms: _380  and  _383
REMARK  169  A    between atoms: _383  and  _384
REMARK  170  A    between atoms: _389  and  _391
REMARK  171  A    between atoms: _391  and  _392
REMARK  172  A    between atoms: _391  and  _394
REMARK  173  A    between atoms: _394  and  _395
REMARK  174  A    between atoms: _400  and  _402
REMARK  175  A    between atoms: _402  and  _403
REMARK  176  A    between atoms: _402  and  _405
REMARK  177  A    between atoms: _405  and  _406
REMARK  178  A    between atoms: _411  and  _413
REMARK  179  A    between atoms: _413  and  _414
REMARK  180  A    between atoms: _413  and  _416
REMARK  181  A    between atoms: _416  and  _417
REMARK  182  A    between atoms: _420  and  _422
REMARK  183  A    between atoms: _422  and  _423
REMARK  184  A    between atoms: _425  and  _427
REMARK  185  A    between atoms: _427  and  _428
REMARK  186  A    between atoms: _431  and  _433
REMARK  187  A    between atoms: _433  and  _434
REMARK  188  A    between atoms: _433  and  _436
REMARK  189  A    between atoms: _436  and  _437
REMARK  190  A    between atoms: _443  and  _445
REMARK  191  A    between atoms: _445  and  _446
REMARK  192  A    between atoms: _445  and  _448
REMARK  193  A    between atoms: _448  and  _449
REMARK  194  A    between atoms: _451  and  _453
REMARK  195  A    between atoms: _453  and  _454
REMARK  196  A    between atoms: _456  and  _458
REMARK  197  A    between atoms: _458  and  _459
REMARK  198  A    between atoms: _458  and  _461
REMARK  199  A    between atoms: _461  and  _462
REMARK  200  A    between atoms: _465  and  _467
REMARK  201  A    between atoms: _467  and  _468
REMARK  202  A    between atoms: _467  and  _470
REMARK  203  A    between atoms: _470  and  _471
REMARK  204  A    between atoms: _474  and  _476
REMARK  205  A    between atoms: _476  and  _477
REMARK  206  A    between atoms: _480  and  _482
REMARK  207  A    between atoms: _482  and  _483
REMARK  208  A    between atoms: _486  and  _488
REMARK  209  A    between atoms: _488  and  _489
REMARK  210  A    between atoms: _491  and  _493
REMARK  211  A    between atoms: _493  and  _494
REMARK  212  A    between atoms: _493  and  _496
REMARK  213  A    between atoms: _496  and  _497
REMARK                            x       y       z     vdW  Elec       q    Type
REMARK                         _______ _______ _______ _____ _____    ______ ____
ROOT
ATOM      1  O   HOH     1       6.116  28.403  -5.731  0.00  0.00    +0.000 OA
ENDROOT
TORSDOF 0
REMARK  Name = ../refined-set-2016/2ews/2ews_pocket.pdb
REMARK  213 active torsions:
REMARK  status: ('A' for Active; 'I' for Inactive)
REMARK    1  A    between atoms: _1  and  _3
REMARK    2  A    between atoms: _3  and  _4
REMARK    3  A    between atoms: _3  and  _6
REMARK    4  A    between atoms: _6  and  _7
REMARK    5  A    between atoms: _10  and  _12
REMARK    6  A    between atoms: _12  and  _13
REMARK    7  A    between atoms: _16  and  _18
REMARK    8  A    between atoms: _18  and  _19
REMARK    9  A    between atoms: _21  and  _23
REMARK   10  A    between atoms: _23  and  _24
REMARK   11  A    between atoms: _26  and  _28
REMARK   12  A    between atoms: _28  and  _29
REMARK   13  A    between atoms: _28  and  _31
REMARK   14  A    between atoms: _31  and  _32
REMARK   15  A    between atoms: _35  and  _37
REMARK   16  A    between atoms: _37  and  _38
REMARK   17  A    between atoms: _37  and  _40
REMARK   18  A    between atoms: _40  and  _41
REMARK   19  A    between atoms: _44  and  _46
REMARK   20  A    between atoms: _46  and  _47
REMARK   21  A    between atoms: _46  and  _49
REMARK   22  A    between atoms: _49  and  _50
REMARK   23  A    between atoms: _53  and  _55
REMARK   24  A    between atoms: _55  and  _56
REMARK   25  A    between atoms: _55  and  _58
REMARK   26  A    between atoms: _58  and  _59
REMARK   27  A    between atoms: _59  and  _60
REMARK   28  A    between atoms: _60  and  _61
REMARK   29  A    between atoms: _61  and  _62
REMARK   30  A    between atoms: _66  and  _68
REMARK   31  A    between atoms: _68  and  _69
REMARK   32  A    between atoms: _68  and  _71
REMARK   33  A    between atoms: _71  and  _72
REMARK   34  A    between atoms: _75  and  _77
REMARK   35  A    between atoms: _77  and  _78
REMARK   36  A    between atoms: _77  and  _80
REMARK   37  A    between atoms: _80  and  _81
REMARK   38  A    between atoms: _81  and  _82
REMARK   39  A    between atoms: _85  and  _87
REMARK   40  A    between atoms: _87  and  _88
REMARK   41  A    between atoms: _87  and  _90
REMARK   42  A    between atoms: _90  and  _91
REMARK   43  A    between atoms: _94  and  _96
REMARK   44  A    between atoms: _96  and  _97
REMARK   45  A    between atoms: _96  and  _99
REMARK   46  A    between atoms: _99  and  _100
REMARK   47  A    between atoms: _103  and  _105
REMARK   48  A    between atoms: _105  and  _106
REMARK   49  A    between atoms: _105  and  _108
REMARK   50  A    between atoms: _108  and  _109
REMARK   51  A    between atoms: _109  and  _110
REMARK   52  A    between atoms: _110  and  _111
REMARK   53  A    between atoms: _111  and  _112
REMARK   54  A    between atoms: _116  and  _118
REMARK   55  A    between atoms: _118  and  _119
REMARK   56  A    between atoms: _118  and  _121
REMARK   57  A    between atoms: _121  and  _122
REMARK   58  A    between atoms: _125  and  _127
REMARK   59  A    between atoms: _127  and  _128
REMARK   60  A    between atoms: _130  and  _132
REMARK   61  A    between atoms: _132  and  _133
REMARK   62  A    between atoms: _135  and  _137
REMARK   63  A    between atoms: _137  and  _138
REMARK   64  A    between atoms: _137  and  _140
REMARK   65  A    between atoms: _140  and  _141
REMARK   66  A    between atoms: _146  and  _148
REMARK   67  A    between atoms: _148  and  _149
REMARK   68  A    between atoms: _148  and  _151
REMARK   69  A    between atoms: _151  and  _152
REMARK   70  A    between atoms: _152  and  _153
REMARK   71  A    between atoms: _156  and  _158
REMARK   72  A    between atoms: _158  and  _159
REMARK   73  A    between atoms: _158  and  _161
REMARK   74  A    between atoms: _161  and  _162
REMARK   75  A    between atoms: _168  and  _170
REMARK   76  A    between atoms: _170  and  _171
REMARK   77  A    between atoms: _170  and  _173
REMARK   78  A    between atoms: _173  and  _174
REMARK   79  A    between atoms: _179  and  _181
REMARK   80  A    between atoms: _181  and  _182
REMARK   81  A    between atoms: _181  and  _184
REMARK   82  A    between atoms: _187  and  _189
REMARK   83  A    between atoms: _189  and  _190
REMARK   84  A    between atoms: _192  and  _194
REMARK   85  A    between atoms: _194  and  _195
REMARK   86  A    between atoms: _194  and  _197
REMARK   87  A    between atoms: _197  and  _198
REMARK   88  A    between atoms: _201  and  _203
REMARK   89  A    between atoms: _203  and  _204
REMARK   90  A    between atoms: _206  and  _208
REMARK   91  A    between atoms: _208  and  _209
REMARK   92  A    between atoms: _208  and  _211
REMARK   93  A    between atoms: _211  and  _212
REMARK   94  A    between atoms: _215  and  _217
REMARK   95  A    between atoms: _217  and  _218
REMARK   96  A    between atoms: _217  and  _220
REMARK   97  A    between atoms: _220  and  _221
REMARK   98  A    between atoms: _223  and  _225
REMARK   99  A    between atoms: _225  and  _226
REMARK  100  A    between atoms: _228  and  _230
REMARK  101  A    between atoms: _230  and  _231
REMARK  102  A    between atoms: _233  and  _235
REMARK  103  A    between atoms: _235  and  _236
REMARK  104  A    between atoms: _238  and  _240
REMARK  105  A    between atoms: _240  and  _241
REMARK  106  A    between atoms: _240  and  _243
REMARK  107  A    between atoms: _243  and  _244
REMARK  108  A    between atoms: _244  and  _245
REMARK  109  A    between atoms: _247  and  _249
REMARK  110  A    between atoms: _249  and  _250
REMARK  111  A    between atoms: _249  and  _252
REMARK  112  A    between atoms: _252  and  _253
REMARK  113  A    between atoms: _256  and  _258
REMARK  114  A    between atoms: _258  and  _259
REMARK  115  A    between atoms: _258  and  _261
REMARK  116  A    between atoms: _261  and  _262
REMARK  117  A    between atoms: _262  and  _263
REMARK  118  A    between atoms: _268  and  _270
REMARK  119  A    between atoms: _270  and  _271
REMARK  120  A    between atoms: _273  and  _275
REMARK  121  A    between atoms: _275  and  _276
REMARK  122  A    between atoms: _275  and  _278
REMARK  123  A    between atoms: _278  and  _279
REMARK  124  A    between atoms: _282  and  _284
REMARK  125  A    between atoms: _284  and  _285
REMARK  126  A    between atoms: _284  and  _287
REMARK  127  A    between atoms: _287  and  _288
REMARK  128  A    between atoms: _291  and  _293
REMARK  129  A    between atoms: _293  and  _294
REMARK  130  A    between atoms: _293  and  _296
REMARK  131  A    between atoms: _296  and  _297
REMARK  132  A    between atoms: _302  and  _303
REMARK  133  A    between atoms: _305  and  _307
REMARK  134  A    between atoms: _307  and  _308
REMARK  135  A    between atoms: _307  and  _310
REMARK  136  A    between atoms: _310  and  _311
REMARK  137  A    between atoms: _311  and  _312
REMARK  138  A    between atoms: _312  and  _313
REMARK  139  A    between atoms: _313  and  _314
REMARK  140  A    between atoms: _318  and  _320
REMARK  141  A    between atoms: _320  and  _321
REMARK  142  A    between atoms: _320  and  _323
REMARK  143  A    between atoms: _323  and  _324
REMARK  144  A    between atoms: _327  and  _329
REMARK  145  A    between atoms: _329  and  _330
REMARK  146  A    between atoms: _329  and  _332
REMARK  147  A    between atoms: _332  and  _333
REMARK  148  A    between atoms: _336  and  _338
REMARK  149  A    between atoms: _338  and  _339
REMARK  150  A    between atoms: _338  and  _341
REMARK  151  A    between atoms: _341  and  _342
REMARK  152  A    between atoms: _345  and  _347
REMARK  153  A    between atoms: _347  and  _348
REMARK  154  A    between atoms: _350  and  _352
REMARK  155  A    between atoms: _352  and  _353
REMARK  156  A    between atoms: _352  and  _355
REMARK  157  A    between atoms: _355  and  _356
REMARK  158  A    between atoms: _358  and  _360
REMARK  159  A    between atoms: _360  and  _361
REMARK  160  A    between atoms: _360  and  _363
REMARK  161  A    between atoms: _363  and  _364
REMARK  162  A    between atoms: _366  and  _368
REMARK  163  A    between atoms: _368  and  _369
REMARK  164  A    between atoms: _368  and  _371
REMARK  165  A    between atoms: _371  and  _372
REMARK  166  A    between atoms: _378  and  _380
REMARK  167  A    between atoms: _380  and  _381
REMARK  168  A    between atoms: _380  and  _383
REMARK  169  A    between atoms: _383  and  _384
REMARK  170  A    between atoms: _389  and  _391
REMARK  171  A    between atoms: _391  and  _392
REMARK  172  A    between atoms: _391  and  _394
REMARK  173  A    between atoms: _394  and  _395
REMARK  174  A    between atoms: _400  and  _402
REMARK  175  A    between atoms: _402  and  _403
REMARK  176  A    between atoms: _402  and  _405
REMARK  177  A    between atoms: _405  and  _406
REMARK  178  A    between atoms: _411  and  _413
REMARK  179  A    between atoms: _413  and  _414
REMARK  180  A    between atoms: _413  and  _416
REMARK  181  A    between atoms: _416  and  _417
REMARK  182  A    between atoms: _420  and  _422
REMARK  183  A    between atoms: _422  and  _423
REMARK  184  A    between atoms: _425  and  _427
REMARK  185  A    between atoms: _427  and  _428
REMARK  186  A    between atoms: _431  and  _433
REMARK  187  A    between atoms: _433  and  _434
REMARK  188  A    between atoms: _433  and  _436
REMARK  189  A    between atoms: _436  and  _437
REMARK  190  A    between atoms: _443  and  _445
REMARK  191  A    between atoms: _445  and  _446
REMARK  192  A    between atoms: _445  and  _448
REMARK  193  A    between atoms: _448  and  _449
REMARK  194  A    between atoms: _451  and  _453
REMARK  195  A    between atoms: _453  and  _454
REMARK  196  A    between atoms: _456  and  _458
REMARK  197  A    between atoms: _458  and  _459
REMARK  198  A    between atoms: _458  and  _461
REMARK  199  A    between atoms: _461  and  _462
REMARK  200  A    between atoms: _465  and  _467
REMARK  201  A    between atoms: _467  and  _468
REMARK  202  A    between atoms: _467  and  _470
REMARK  203  A    between atoms: _470  and  _471
REMARK  204  A    between atoms: _474  and  _476
REMARK  205  A    between atoms: _476  and  _477
REMARK  206  A    between atoms: _480  and  _482
REMARK  207  A    between atoms: _482  and  _483
REMARK  208  A    between atoms: _486  and  _488
REMARK  209  A    between atoms: _488  and  _489
REMARK  210  A    between atoms: _491  and  _493
REMARK  211  A    between atoms: _493  and  _494
REMARK  212  A    between atoms: _493  and  _496
REMARK  213  A    between atoms: _496  and  _497
REMARK                            x       y       z     vdW  Elec       q    Type
REMARK                         _______ _______ _______ _____ _____    ______ ____
ROOT
ATOM      1  O   HOH     1      23.622  27.940   0.929  0.00  0.00    +0.000 OA
ENDROOT
TORSDOF 0
REMARK  Name = ../refined-set-2016/2ews/2ews_pocket.pdb
REMARK  213 active torsions:
REMARK  status: ('A' for Active; 'I' for Inactive)
REMARK    1  A    between atoms: _1  and  _3
REMARK    2  A    between atoms: _3  and  _4
REMARK    3  A    between atoms: _3  and  _6
REMARK    4  A    between atoms: _6  and  _7
REMARK    5  A    between atoms: _10  and  _12
REMARK    6  A    between atoms: _12  and  _13
REMARK    7  A    between atoms: _16  and  _18
REMARK    8  A    between atoms: _18  and  _19
REMARK    9  A    between atoms: _21  and  _23
REMARK   10  A    between atoms: _23  and  _24
REMARK   11  A    between atoms: _26  and  _28
REMARK   12  A    between atoms: _28  and  _29
REMARK   13  A    between atoms: _28  and  _31
REMARK   14  A    between atoms: _31  and  _32
REMARK   15  A    between atoms: _35  and  _37
REMARK   16  A    between atoms: _37  and  _38
REMARK   17  A    between atoms: _37  and  _40
REMARK   18  A    between atoms: _40  and  _41
REMARK   19  A    between atoms: _44  and  _46
REMARK   20  A    between atoms: _46  and  _47
REMARK   21  A    between atoms: _46  and  _49
REMARK   22  A    between atoms: _49  and  _50
REMARK   23  A    between atoms: _53  and  _55
REMARK   24  A    between atoms: _55  and  _56
REMARK   25  A    between atoms: _55  and  _58
REMARK   26  A    between atoms: _58  and  _59
REMARK   27  A    between atoms: _59  and  _60
REMARK   28  A    between atoms: _60  and  _61
REMARK   29  A    between atoms: _61  and  _62
REMARK   30  A    between atoms: _66  and  _68
REMARK   31  A    between atoms: _68  and  _69
REMARK   32  A    between atoms: _68  and  _71
REMARK   33  A    between atoms: _71  and  _72
REMARK   34  A    between atoms: _75  and  _77
REMARK   35  A    between atoms: _77  and  _78
REMARK   36  A    between atoms: _77  and  _80
REMARK   37  A    between atoms: _80  and  _81
REMARK   38  A    between atoms: _81  and  _82
REMARK   39  A    between atoms: _85  and  _87
REMARK   40  A    between atoms: _87  and  _88
REMARK   41  A    between atoms: _87  and  _90
REMARK   42  A    between atoms: _90  and  _91
REMARK   43  A    between atoms: _94  and  _96
REMARK   44  A    between atoms: _96  and  _97
REMARK   45  A    between atoms: _96  and  _99
REMARK   46  A    between atoms: _99  and  _100
REMARK   47  A    between atoms: _103  and  _105
REMARK   48  A    between atoms: _105  and  _106
REMARK   49  A    between atoms: _105  and  _108
REMARK   50  A    between atoms: _108  and  _109
REMARK   51  A    between atoms: _109  and  _110
REMARK   52  A    between atoms: _110  and  _111
REMARK   53  A    between atoms: _111  and  _112
REMARK   54  A    between atoms: _116  and  _118
REMARK   55  A    between atoms: _118  and  _119
REMARK   56  A    between atoms: _118  and  _121
REMARK   57  A    between atoms: _121  and  _122
REMARK   58  A    between atoms: _125  and  _127
REMARK   59  A    between atoms: _127  and  _128
REMARK   60  A    between atoms: _130  and  _132
REMARK   61  A    between atoms: _132  and  _133
REMARK   62  A    between atoms: _135  and  _137
REMARK   63  A    between atoms: _137  and  _138
REMARK   64  A    between atoms: _137  and  _140
REMARK   65  A    between atoms: _140  and  _141
REMARK   66  A    between atoms: _146  and  _148
REMARK   67  A    between atoms: _148  and  _149
REMARK   68  A    between atoms: _148  and  _151
REMARK   69  A    between atoms: _151  and  _152
REMARK   70  A    between atoms: _152  and  _153
REMARK   71  A    between atoms: _156  and  _158
REMARK   72  A    between atoms: _158  and  _159
REMARK   73  A    between atoms: _158  and  _161
REMARK   74  A    between atoms: _161  and  _162
REMARK   75  A    between atoms: _168  and  _170
REMARK   76  A    between atoms: _170  and  _171
REMARK   77  A    between atoms: _170  and  _173
REMARK   78  A    between atoms: _173  and  _174
REMARK   79  A    between atoms: _179  and  _181
REMARK   80  A    between atoms: _181  and  _182
REMARK   81  A    between atoms: _181  and  _184
REMARK   82  A    between atoms: _187  and  _189
REMARK   83  A    between atoms: _189  and  _190
REMARK   84  A    between atoms: _192  and  _194
REMARK   85  A    between atoms: _194  and  _195
REMARK   86  A    between atoms: _194  and  _197
REMARK   87  A    between atoms: _197  and  _198
REMARK   88  A    between atoms: _201  and  _203
REMARK   89  A    between atoms: _203  and  _204
REMARK   90  A    between atoms: _206  and  _208
REMARK   91  A    between atoms: _208  and  _209
REMARK   92  A    between atoms: _208  and  _211
REMARK   93  A    between atoms: _211  and  _212
REMARK   94  A    between atoms: _215  and  _217
REMARK   95  A    between atoms: _217  and  _218
REMARK   96  A    between atoms: _217  and  _220
REMARK   97  A    between atoms: _220  and  _221
REMARK   98  A    between atoms: _223  and  _225
REMARK   99  A    between atoms: _225  and  _226
REMARK  100  A    between atoms: _228  and  _230
REMARK  101  A    between atoms: _230  and  _231
REMARK  102  A    between atoms: _233  and  _235
REMARK  103  A    between atoms: _235  and  _236
REMARK  104  A    between atoms: _238  and  _240
REMARK  105  A    between atoms: _240  and  _241
REMARK  106  A    between atoms: _240  and  _243
REMARK  107  A    between atoms: _243  and  _244
REMARK  108  A    between atoms: _244  and  _245
REMARK  109  A    between atoms: _247  and  _249
REMARK  110  A    between atoms: _249  and  _250
REMARK  111  A    between atoms: _249  and  _252
REMARK  112  A    between atoms: _252  and  _253
REMARK  113  A    between atoms: _256  and  _258
REMARK  114  A    between atoms: _258  and  _259
REMARK  115  A    between atoms: _258  and  _261
REMARK  116  A    between atoms: _261  and  _262
REMARK  117  A    between atoms: _262  and  _263
REMARK  118  A    between atoms: _268  and  _270
REMARK  119  A    between atoms: _270  and  _271
REMARK  120  A    between atoms: _273  and  _275
REMARK  121  A    between atoms: _275  and  _276
REMARK  122  A    between atoms: _275  and  _278
REMARK  123  A    between atoms: _278  and  _279
REMARK  124  A    between atoms: _282  and  _284
REMARK  125  A    between atoms: _284  and  _285
REMARK  126  A    between atoms: _284  and  _287
REMARK  127  A    between atoms: _287  and  _288
REMARK  128  A    between atoms: _291  and  _293
REMARK  129  A    between atoms: _293  and  _294
REMARK  130  A    between atoms: _293  and  _296
REMARK  131  A    between atoms: _296  and  _297
REMARK  132  A    between atoms: _302  and  _303
REMARK  133  A    between atoms: _305  and  _307
REMARK  134  A    between atoms: _307  and  _308
REMARK  135  A    between atoms: _307  and  _310
REMARK  136  A    between atoms: _310  and  _311
REMARK  137  A    between atoms: _311  and  _312
REMARK  138  A    between atoms: _312  and  _313
REMARK  139  A    between atoms: _313  and  _314
REMARK  140  A    between atoms: _318  and  _320
REMARK  141  A    between atoms: _320  and  _321
REMARK  142  A    between atoms: _320  and  _323
REMARK  143  A    between atoms: _323  and  _324
REMARK  144  A    between atoms: _327  and  _329
REMARK  145  A    between atoms: _329  and  _330
REMARK  146  A    between atoms: _329  and  _332
REMARK  147  A    between atoms: _332  and  _333
REMARK  148  A    between atoms: _336  and  _338
REMARK  149  A    between atoms: _338  and  _339
REMARK  150  A    between atoms: _338  and  _341
REMARK  151  A    between atoms: _341  and  _342
REMARK  152  A    between atoms: _345  and  _347
REMARK  153  A    between atoms: _347  and  _348
REMARK  154  A    between atoms: _350  and  _352
REMARK  155  A    between atoms: _352  and  _353
REMARK  156  A    between atoms: _352  and  _355
REMARK  157  A    between atoms: _355  and  _356
REMARK  158  A    between atoms: _358  and  _360
REMARK  159  A    between atoms: _360  and  _361
REMARK  160  A    between atoms: _360  and  _363
REMARK  161  A    between atoms: _363  and  _364
REMARK  162  A    between atoms: _366  and  _368
REMARK  163  A    between atoms: _368  and  _369
REMARK  164  A    between atoms: _368  and  _371
REMARK  165  A    between atoms: _371  and  _372
REMARK  166  A    between atoms: _378  and  _380
REMARK  167  A    between atoms: _380  and  _381
REMARK  168  A    between atoms: _380  and  _383
REMARK  169  A    between atoms: _383  and  _384
REMARK  170  A    between atoms: _389  and  _391
REMARK  171  A    between atoms: _391  and  _392
REMARK  172  A    between atoms: _391  and  _394
REMARK  173  A    between atoms: _394  and  _395
REMARK  174  A    between atoms: _400  and  _402
REMARK  175  A    between atoms: _402  and  _403
REMARK  176  A    between atoms: _402  and  _405
REMARK  177  A    between atoms: _405  and  _406
REMARK  178  A    between atoms: _411  and  _413
REMARK  179  A    between atoms: _413  and  _414
REMARK  180  A    between atoms: _413  and  _416
REMARK  181  A    between atoms: _416  and  _417
REMARK  182  A    between atoms: _420  and  _422
REMARK  183  A    between atoms: _422  and  _423
REMARK  184  A    between atoms: _425  and  _427
REMARK  185  A    between atoms: _427  and  _428
REMARK  186  A    between atoms: _431  and  _433
REMARK  187  A    between atoms: _433  and  _434
REMARK  188  A    between atoms: _433  and  _436
REMARK  189  A    between atoms: _436  and  _437
REMARK  190  A    between atoms: _443  and  _445
REMARK  191  A    between atoms: _445  and  _446
REMARK  192  A    between atoms: _445  and  _448
REMARK  193  A    between atoms: _448  and  _449
REMARK  194  A    between atoms: _451  and  _453
REMARK  195  A    between atoms: _453  and  _454
REMARK  196  A    between atoms: _456  and  _458
REMARK  197  A    between atoms: _458  and  _459
REMARK  198  A    between atoms: _458  and  _461
REMARK  199  A    between atoms: _461  and  _462
REMARK  200  A    between atoms: _465  and  _467
REMARK  201  A    between atoms: _467  and  _468
REMARK  202  A    between atoms: _467  and  _470
REMARK  203  A    between atoms: _470  and  _471
REMARK  204  A    between atoms: _474  and  _476
REMARK  205  A    between atoms: _476  and  _477
REMARK  206  A    between atoms: _480  and  _482
REMARK  207  A    between atoms: _482  and  _483
REMARK  208  A    between atoms: _486  and  _488
REMARK  209  A    between atoms: _488  and  _489
REMARK  210  A    between atoms: _491  and  _493
REMARK  211  A    between atoms: _493  and  _494
REMARK  212  A    between atoms: _493  and  _496
REMARK  213  A    between atoms: _496  and  _497
REMARK                            x       y       z     vdW  Elec       q    Type
REMARK                         _______ _______ _______ _____ _____    ______ ____
ROOT
ATOM      1  O   HOH     1       7.454  36.208  -2.660  0.00  0.00    +0.000 OA
ENDROOT
TORSDOF 0
REMARK  Name = ../refined-set-2016/2ews/2ews_pocket.pdb
REMARK  213 active torsions:
REMARK  status: ('A' for Active; 'I' for Inactive)
REMARK    1  A    between atoms: _1  and  _3
REMARK    2  A    between atoms: _3  and  _4
REMARK    3  A    between atoms: _3  and  _6
REMARK    4  A    between atoms: _6  and  _7
REMARK    5  A    between atoms: _10  and  _12
REMARK    6  A    between atoms: _12  and  _13
REMARK    7  A    between atoms: _16  and  _18
REMARK    8  A    between atoms: _18  and  _19
REMARK    9  A    between atoms: _21  and  _23
REMARK   10  A    between atoms: _23  and  _24
REMARK   11  A    between atoms: _26  and  _28
REMARK   12  A    between atoms: _28  and  _29
REMARK   13  A    between atoms: _28  and  _31
REMARK   14  A    between atoms: _31  and  _32
REMARK   15  A    between atoms: _35  and  _37
REMARK   16  A    between atoms: _37  and  _38
REMARK   17  A    between atoms: _37  and  _40
REMARK   18  A    between atoms: _40  and  _41
REMARK   19  A    between atoms: _44  and  _46
REMARK   20  A    between atoms: _46  and  _47
REMARK   21  A    between atoms: _46  and  _49
REMARK   22  A    between atoms: _49  and  _50
REMARK   23  A    between atoms: _53  and  _55
REMARK   24  A    between atoms: _55  and  _56
REMARK   25  A    between atoms: _55  and  _58
REMARK   26  A    between atoms: _58  and  _59
REMARK   27  A    between atoms: _59  and  _60
REMARK   28  A    between atoms: _60  and  _61
REMARK   29  A    between atoms: _61  and  _62
REMARK   30  A    between atoms: _66  and  _68
REMARK   31  A    between atoms: _68  and  _69
REMARK   32  A    between atoms: _68  and  _71
REMARK   33  A    between atoms: _71  and  _72
REMARK   34  A    between atoms: _75  and  _77
REMARK   35  A    between atoms: _77  and  _78
REMARK   36  A    between atoms: _77  and  _80
REMARK   37  A    between atoms: _80  and  _81
REMARK   38  A    between atoms: _81  and  _82
REMARK   39  A    between atoms: _85  and  _87
REMARK   40  A    between atoms: _87  and  _88
REMARK   41  A    between atoms: _87  and  _90
REMARK   42  A    between atoms: _90  and  _91
REMARK   43  A    between atoms: _94  and  _96
REMARK   44  A    between atoms: _96  and  _97
REMARK   45  A    between atoms: _96  and  _99
REMARK   46  A    between atoms: _99  and  _100
REMARK   47  A    between atoms: _103  and  _105
REMARK   48  A    between atoms: _105  and  _106
REMARK   49  A    between atoms: _105  and  _108
REMARK   50  A    between atoms: _108  and  _109
REMARK   51  A    between atoms: _109  and  _110
REMARK   52  A    between atoms: _110  and  _111
REMARK   53  A    between atoms: _111  and  _112
REMARK   54  A    between atoms: _116  and  _118
REMARK   55  A    between atoms: _118  and  _119
REMARK   56  A    between atoms: _118  and  _121
REMARK   57  A    between atoms: _121  and  _122
REMARK   58  A    between atoms: _125  and  _127
REMARK   59  A    between atoms: _127  and  _128
REMARK   60  A    between atoms: _130  and  _132
REMARK   61  A    between atoms: _132  and  _133
REMARK   62  A    between atoms: _135  and  _137
REMARK   63  A    between atoms: _137  and  _138
REMARK   64  A    between atoms: _137  and  _140
REMARK   65  A    between atoms: _140  and  _141
REMARK   66  A    between atoms: _146  and  _148
REMARK   67  A    between atoms: _148  and  _149
REMARK   68  A    between atoms: _148  and  _151
REMARK   69  A    between atoms: _151  and  _152
REMARK   70  A    between atoms: _152  and  _153
REMARK   71  A    between atoms: _156  and  _158
REMARK   72  A    between atoms: _158  and  _159
REMARK   73  A    between atoms: _158  and  _161
REMARK   74  A    between atoms: _161  and  _162
REMARK   75  A    between atoms: _168  and  _170
REMARK   76  A    between atoms: _170  and  _171
REMARK   77  A    between atoms: _170  and  _173
REMARK   78  A    between atoms: _173  and  _174
REMARK   79  A    between atoms: _179  and  _181
REMARK   80  A    between atoms: _181  and  _182
REMARK   81  A    between atoms: _181  and  _184
REMARK   82  A    between atoms: _187  and  _189
REMARK   83  A    between atoms: _189  and  _190
REMARK   84  A    between atoms: _192  and  _194
REMARK   85  A    between atoms: _194  and  _195
REMARK   86  A    between atoms: _194  and  _197
REMARK   87  A    between atoms: _197  and  _198
REMARK   88  A    between atoms: _201  and  _203
REMARK   89  A    between atoms: _203  and  _204
REMARK   90  A    between atoms: _206  and  _208
REMARK   91  A    between atoms: _208  and  _209
REMARK   92  A    between atoms: _208  and  _211
REMARK   93  A    between atoms: _211  and  _212
REMARK   94  A    between atoms: _215  and  _217
REMARK   95  A    between atoms: _217  and  _218
REMARK   96  A    between atoms: _217  and  _220
REMARK   97  A    between atoms: _220  and  _221
REMARK   98  A    between atoms: _223  and  _225
REMARK   99  A    between atoms: _225  and  _226
REMARK  100  A    between atoms: _228  and  _230
REMARK  101  A    between atoms: _230  and  _231
REMARK  102  A    between atoms: _233  and  _235
REMARK  103  A    between atoms: _235  and  _236
REMARK  104  A    between atoms: _238  and  _240
REMARK  105  A    between atoms: _240  and  _241
REMARK  106  A    between atoms: _240  and  _243
REMARK  107  A    between atoms: _243  and  _244
REMARK  108  A    between atoms: _244  and  _245
REMARK  109  A    between atoms: _247  and  _249
REMARK  110  A    between atoms: _249  and  _250
REMARK  111  A    between atoms: _249  and  _252
REMARK  112  A    between atoms: _252  and  _253
REMARK  113  A    between atoms: _256  and  _258
REMARK  114  A    between atoms: _258  and  _259
REMARK  115  A    between atoms: _258  and  _261
REMARK  116  A    between atoms: _261  and  _262
REMARK  117  A    between atoms: _262  and  _263
REMARK  118  A    between atoms: _268  and  _270
REMARK  119  A    between atoms: _270  and  _271
REMARK  120  A    between atoms: _273  and  _275
REMARK  121  A    between atoms: _275  and  _276
REMARK  122  A    between atoms: _275  and  _278
REMARK  123  A    between atoms: _278  and  _279
REMARK  124  A    between atoms: _282  and  _284
REMARK  125  A    between atoms: _284  and  _285
REMARK  126  A    between atoms: _284  and  _287
REMARK  127  A    between atoms: _287  and  _288
REMARK  128  A    between atoms: _291  and  _293
REMARK  129  A    between atoms: _293  and  _294
REMARK  130  A    between atoms: _293  and  _296
REMARK  131  A    between atoms: _296  and  _297
REMARK  132  A    between atoms: _302  and  _303
REMARK  133  A    between atoms: _305  and  _307
REMARK  134  A    between atoms: _307  and  _308
REMARK  135  A    between atoms: _307  and  _310
REMARK  136  A    between atoms: _310  and  _311
REMARK  137  A    between atoms: _311  and  _312
REMARK  138  A    between atoms: _312  and  _313
REMARK  139  A    between atoms: _313  and  _314
REMARK  140  A    between atoms: _318  and  _320
REMARK  141  A    between atoms: _320  and  _321
REMARK  142  A    between atoms: _320  and  _323
REMARK  143  A    between atoms: _323  and  _324
REMARK  144  A    between atoms: _327  and  _329
REMARK  145  A    between atoms: _329  and  _330
REMARK  146  A    between atoms: _329  and  _332
REMARK  147  A    between atoms: _332  and  _333
REMARK  148  A    between atoms: _336  and  _338
REMARK  149  A    between atoms: _338  and  _339
REMARK  150  A    between atoms: _338  and  _341
REMARK  151  A    between atoms: _341  and  _342
REMARK  152  A    between atoms: _345  and  _347
REMARK  153  A    between atoms: _347  and  _348
REMARK  154  A    between atoms: _350  and  _352
REMARK  155  A    between atoms: _352  and  _353
REMARK  156  A    between atoms: _352  and  _355
REMARK  157  A    between atoms: _355  and  _356
REMARK  158  A    between atoms: _358  and  _360
REMARK  159  A    between atoms: _360  and  _361
REMARK  160  A    between atoms: _360  and  _363
REMARK  161  A    between atoms: _363  and  _364
REMARK  162  A    between atoms: _366  and  _368
REMARK  163  A    between atoms: _368  and  _369
REMARK  164  A    between atoms: _368  and  _371
REMARK  165  A    between atoms: _371  and  _372
REMARK  166  A    between atoms: _378  and  _380
REMARK  167  A    between atoms: _380  and  _381
REMARK  168  A    between atoms: _380  and  _383
REMARK  169  A    between atoms: _383  and  _384
REMARK  170  A    between atoms: _389  and  _391
REMARK  171  A    between atoms: _391  and  _392
REMARK  172  A    between atoms: _391  and  _394
REMARK  173  A    between atoms: _394  and  _395
REMARK  174  A    between atoms: _400  and  _402
REMARK  175  A    between atoms: _402  and  _403
REMARK  176  A    between atoms: _402  and  _405
REMARK  177  A    between atoms: _405  and  _406
REMARK  178  A    between atoms: _411  and  _413
REMARK  179  A    between atoms: _413  and  _414
REMARK  180  A    between atoms: _413  and  _416
REMARK  181  A    between atoms: _416  and  _417
REMARK  182  A    between atoms: _420  and  _422
REMARK  183  A    between atoms: _422  and  _423
REMARK  184  A    between atoms: _425  and  _427
REMARK  185  A    between atoms: _427  and  _428
REMARK  186  A    between atoms: _431  and  _433
REMARK  187  A    between atoms: _433  and  _434
REMARK  188  A    between atoms: _433  and  _436
REMARK  189  A    between atoms: _436  and  _437
REMARK  190  A    between atoms: _443  and  _445
REMARK  191  A    between atoms: _445  and  _446
REMARK  192  A    between atoms: _445  and  _448
REMARK  193  A    between atoms: _448  and  _449
REMARK  194  A    between atoms: _451  and  _453
REMARK  195  A    between atoms: _453  and  _454
REMARK  196  A    between atoms: _456  and  _458
REMARK  197  A    between atoms: _458  and  _459
REMARK  198  A    between atoms: _458  and  _461
REMARK  199  A    between atoms: _461  and  _462
REMARK  200  A    between atoms: _465  and  _467
REMARK  201  A    between atoms: _467  and  _468
REMARK  202  A    between atoms: _467  and  _470
REMARK  203  A    between atoms: _470  and  _471
REMARK  204  A    between atoms: _474  and  _476
REMARK  205  A    between atoms: _476  and  _477
REMARK  206  A    between atoms: _480  and  _482
REMARK  207  A    between atoms: _482  and  _483
REMARK  208  A    between atoms: _486  and  _488
REMARK  209  A    between atoms: _488  and  _489
REMARK  210  A    between atoms: _491  and  _493
REMARK  211  A    between atoms: _493  and  _494
REMARK  212  A    between atoms: _493  and  _496
REMARK  213  A    between atoms: _496  and  _497
REMARK                            x       y       z     vdW  Elec       q    Type
REMARK                         _______ _______ _______ _____ _____    ______ ____
ROOT
ATOM      1  O   HOH     1       7.600  33.740  -4.265  0.00  0.00    +0.000 OA
ENDROOT
TORSDOF 0
REMARK  Name = ../refined-set-2016/2ews/2ews_pocket.pdb
REMARK  213 active torsions:
REMARK  status: ('A' for Active; 'I' for Inactive)
REMARK    1  A    between atoms: _1  and  _3
REMARK    2  A    between atoms: _3  and  _4
REMARK    3  A    between atoms: _3  and  _6
REMARK    4  A    between atoms: _6  and  _7
REMARK    5  A    between atoms: _10  and  _12
REMARK    6  A    between atoms: _12  and  _13
REMARK    7  A    between atoms: _16  and  _18
REMARK    8  A    between atoms: _18  and  _19
REMARK    9  A    between atoms: _21  and  _23
REMARK   10  A    between atoms: _23  and  _24
REMARK   11  A    between atoms: _26  and  _28
REMARK   12  A    between atoms: _28  and  _29
REMARK   13  A    between atoms: _28  and  _31
REMARK   14  A    between atoms: _31  and  _32
REMARK   15  A    between atoms: _35  and  _37
REMARK   16  A    between atoms: _37  and  _38
REMARK   17  A    between atoms: _37  and  _40
REMARK   18  A    between atoms: _40  and  _41
REMARK   19  A    between atoms: _44  and  _46
REMARK   20  A    between atoms: _46  and  _47
REMARK   21  A    between atoms: _46  and  _49
REMARK   22  A    between atoms: _49  and  _50
REMARK   23  A    between atoms: _53  and  _55
REMARK   24  A    between atoms: _55  and  _56
REMARK   25  A    between atoms: _55  and  _58
REMARK   26  A    between atoms: _58  and  _59
REMARK   27  A    between atoms: _59  and  _60
REMARK   28  A    between atoms: _60  and  _61
REMARK   29  A    between atoms: _61  and  _62
REMARK   30  A    between atoms: _66  and  _68
REMARK   31  A    between atoms: _68  and  _69
REMARK   32  A    between atoms: _68  and  _71
REMARK   33  A    between atoms: _71  and  _72
REMARK   34  A    between atoms: _75  and  _77
REMARK   35  A    between atoms: _77  and  _78
REMARK   36  A    between atoms: _77  and  _80
REMARK   37  A    between atoms: _80  and  _81
REMARK   38  A    between atoms: _81  and  _82
REMARK   39  A    between atoms: _85  and  _87
REMARK   40  A    between atoms: _87  and  _88
REMARK   41  A    between atoms: _87  and  _90
REMARK   42  A    between atoms: _90  and  _91
REMARK   43  A    between atoms: _94  and  _96
REMARK   44  A    between atoms: _96  and  _97
REMARK   45  A    between atoms: _96  and  _99
REMARK   46  A    between atoms: _99  and  _100
REMARK   47  A    between atoms: _103  and  _105
REMARK   48  A    between atoms: _105  and  _106
REMARK   49  A    between atoms: _105  and  _108
REMARK   50  A    between atoms: _108  and  _109
REMARK   51  A    between atoms: _109  and  _110
REMARK   52  A    between atoms: _110  and  _111
REMARK   53  A    between atoms: _111  and  _112
REMARK   54  A    between atoms: _116  and  _118
REMARK   55  A    between atoms: _118  and  _119
REMARK   56  A    between atoms: _118  and  _121
REMARK   57  A    between atoms: _121  and  _122
REMARK   58  A    between atoms: _125  and  _127
REMARK   59  A    between atoms: _127  and  _128
REMARK   60  A    between atoms: _130  and  _132
REMARK   61  A    between atoms: _132  and  _133
REMARK   62  A    between atoms: _135  and  _137
REMARK   63  A    between atoms: _137  and  _138
REMARK   64  A    between atoms: _137  and  _140
REMARK   65  A    between atoms: _140  and  _141
REMARK   66  A    between atoms: _146  and  _148
REMARK   67  A    between atoms: _148  and  _149
REMARK   68  A    between atoms: _148  and  _151
REMARK   69  A    between atoms: _151  and  _152
REMARK   70  A    between atoms: _152  and  _153
REMARK   71  A    between atoms: _156  and  _158
REMARK   72  A    between atoms: _158  and  _159
REMARK   73  A    between atoms: _158  and  _161
REMARK   74  A    between atoms: _161  and  _162
REMARK   75  A    between atoms: _168  and  _170
REMARK   76  A    between atoms: _170  and  _171
REMARK   77  A    between atoms: _170  and  _173
REMARK   78  A    between atoms: _173  and  _174
REMARK   79  A    between atoms: _179  and  _181
REMARK   80  A    between atoms: _181  and  _182
REMARK   81  A    between atoms: _181  and  _184
REMARK   82  A    between atoms: _187  and  _189
REMARK   83  A    between atoms: _189  and  _190
REMARK   84  A    between atoms: _192  and  _194
REMARK   85  A    between atoms: _194  and  _195
REMARK   86  A    between atoms: _194  and  _197
REMARK   87  A    between atoms: _197  and  _198
REMARK   88  A    between atoms: _201  and  _203
REMARK   89  A    between atoms: _203  and  _204
REMARK   90  A    between atoms: _206  and  _208
REMARK   91  A    between atoms: _208  and  _209
REMARK   92  A    between atoms: _208  and  _211
REMARK   93  A    between atoms: _211  and  _212
REMARK   94  A    between atoms: _215  and  _217
REMARK   95  A    between atoms: _217  and  _218
REMARK   96  A    between atoms: _217  and  _220
REMARK   97  A    between atoms: _220  and  _221
REMARK   98  A    between atoms: _223  and  _225
REMARK   99  A    between atoms: _225  and  _226
REMARK  100  A    between atoms: _228  and  _230
REMARK  101  A    between atoms: _230  and  _231
REMARK  102  A    between atoms: _233  and  _235
REMARK  103  A    between atoms: _235  and  _236
REMARK  104  A    between atoms: _238  and  _240
REMARK  105  A    between atoms: _240  and  _241
REMARK  106  A    between atoms: _240  and  _243
REMARK  107  A    between atoms: _243  and  _244
REMARK  108  A    between atoms: _244  and  _245
REMARK  109  A    between atoms: _247  and  _249
REMARK  110  A    between atoms: _249  and  _250
REMARK  111  A    between atoms: _249  and  _252
REMARK  112  A    between atoms: _252  and  _253
REMARK  113  A    between atoms: _256  and  _258
REMARK  114  A    between atoms: _258  and  _259
REMARK  115  A    between atoms: _258  and  _261
REMARK  116  A    between atoms: _261  and  _262
REMARK  117  A    between atoms: _262  and  _263
REMARK  118  A    between atoms: _268  and  _270
REMARK  119  A    between atoms: _270  and  _271
REMARK  120  A    between atoms: _273  and  _275
REMARK  121  A    between atoms: _275  and  _276
REMARK  122  A    between atoms: _275  and  _278
REMARK  123  A    between atoms: _278  and  _279
REMARK  124  A    between atoms: _282  and  _284
REMARK  125  A    between atoms: _284  and  _285
REMARK  126  A    between atoms: _284  and  _287
REMARK  127  A    between atoms: _287  and  _288
REMARK  128  A    between atoms: _291  and  _293
REMARK  129  A    between atoms: _293  and  _294
REMARK  130  A    between atoms: _293  and  _296
REMARK  131  A    between atoms: _296  and  _297
REMARK  132  A    between atoms: _302  and  _303
REMARK  133  A    between atoms: _305  and  _307
REMARK  134  A    between atoms: _307  and  _308
REMARK  135  A    between atoms: _307  and  _310
REMARK  136  A    between atoms: _310  and  _311
REMARK  137  A    between atoms: _311  and  _312
REMARK  138  A    between atoms: _312  and  _313
REMARK  139  A    between atoms: _313  and  _314
REMARK  140  A    between atoms: _318  and  _320
REMARK  141  A    between atoms: _320  and  _321
REMARK  142  A    between atoms: _320  and  _323
REMARK  143  A    between atoms: _323  and  _324
REMARK  144  A    between atoms: _327  and  _329
REMARK  145  A    between atoms: _329  and  _330
REMARK  146  A    between atoms: _329  and  _332
REMARK  147  A    between atoms: _332  and  _333
REMARK  148  A    between atoms: _336  and  _338
REMARK  149  A    between atoms: _338  and  _339
REMARK  150  A    between atoms: _338  and  _341
REMARK  151  A    between atoms: _341  and  _342
REMARK  152  A    between atoms: _345  and  _347
REMARK  153  A    between atoms: _347  and  _348
REMARK  154  A    between atoms: _350  and  _352
REMARK  155  A    between atoms: _352  and  _353
REMARK  156  A    between atoms: _352  and  _355
REMARK  157  A    between atoms: _355  and  _356
REMARK  158  A    between atoms: _358  and  _360
REMARK  159  A    between atoms: _360  and  _361
REMARK  160  A    between atoms: _360  and  _363
REMARK  161  A    between atoms: _363  and  _364
REMARK  162  A    between atoms: _366  and  _368
REMARK  163  A    between atoms: _368  and  _369
REMARK  164  A    between atoms: _368  and  _371
REMARK  165  A    between atoms: _371  and  _372
REMARK  166  A    between atoms: _378  and  _380
REMARK  167  A    between atoms: _380  and  _381
REMARK  168  A    between atoms: _380  and  _383
REMARK  169  A    between atoms: _383  and  _384
REMARK  170  A    between atoms: _389  and  _391
REMARK  171  A    between atoms: _391  and  _392
REMARK  172  A    between atoms: _391  and  _394
REMARK  173  A    between atoms: _394  and  _395
REMARK  174  A    between atoms: _400  and  _402
REMARK  175  A    between atoms: _402  and  _403
REMARK  176  A    between atoms: _402  and  _405
REMARK  177  A    between atoms: _405  and  _406
REMARK  178  A    between atoms: _411  and  _413
REMARK  179  A    between atoms: _413  and  _414
REMARK  180  A    between atoms: _413  and  _416
REMARK  181  A    between atoms: _416  and  _417
REMARK  182  A    between atoms: _420  and  _422
REMARK  183  A    between atoms: _422  and  _423
REMARK  184  A    between atoms: _425  and  _427
REMARK  185  A    between atoms: _427  and  _428
REMARK  186  A    between atoms: _431  and  _433
REMARK  187  A    between atoms: _433  and  _434
REMARK  188  A    between atoms: _433  and  _436
REMARK  189  A    between atoms: _436  and  _437
REMARK  190  A    between atoms: _443  and  _445
REMARK  191  A    between atoms: _445  and  _446
REMARK  192  A    between atoms: _445  and  _448
REMARK  193  A    between atoms: _448  and  _449
REMARK  194  A    between atoms: _451  and  _453
REMARK  195  A    between atoms: _453  and  _454
REMARK  196  A    between atoms: _456  and  _458
REMARK  197  A    between atoms: _458  and  _459
REMARK  198  A    between atoms: _458  and  _461
REMARK  199  A    between atoms: _461  and  _462
REMARK  200  A    between atoms: _465  and  _467
REMARK  201  A    between atoms: _467  and  _468
REMARK  202  A    between atoms: _467  and  _470
REMARK  203  A    between atoms: _470  and  _471
REMARK  204  A    between atoms: _474  and  _476
REMARK  205  A    between atoms: _476  and  _477
REMARK  206  A    between atoms: _480  and  _482
REMARK  207  A    between atoms: _482  and  _483
REMARK  208  A    between atoms: _486  and  _488
REMARK  209  A    between atoms: _488  and  _489
REMARK  210  A    between atoms: _491  and  _493
REMARK  211  A    between atoms: _493  and  _494
REMARK  212  A    between atoms: _493  and  _496
REMARK  213  A    between atoms: _496  and  _497
REMARK                            x       y       z     vdW  Elec       q    Type
REMARK                         _______ _______ _______ _____ _____    ______ ____
ROOT
ATOM      1  O   HOH     1      18.577  23.002   2.825  0.00  0.00    +0.000 OA
ENDROOT
TORSDOF 0
REMARK  Name = ../refined-set-2016/2ews/2ews_pocket.pdb
REMARK  213 active torsions:
REMARK  status: ('A' for Active; 'I' for Inactive)
REMARK    1  A    between atoms: _1  and  _3
REMARK    2  A    between atoms: _3  and  _4
REMARK    3  A    between atoms: _3  and  _6
REMARK    4  A    between atoms: _6  and  _7
REMARK    5  A    between atoms: _10  and  _12
REMARK    6  A    between atoms: _12  and  _13
REMARK    7  A    between atoms: _16  and  _18
REMARK    8  A    between atoms: _18  and  _19
REMARK    9  A    between atoms: _21  and  _23
REMARK   10  A    between atoms: _23  and  _24
REMARK   11  A    between atoms: _26  and  _28
REMARK   12  A    between atoms: _28  and  _29
REMARK   13  A    between atoms: _28  and  _31
REMARK   14  A    between atoms: _31  and  _32
REMARK   15  A    between atoms: _35  and  _37
REMARK   16  A    between atoms: _37  and  _38
REMARK   17  A    between atoms: _37  and  _40
REMARK   18  A    between atoms: _40  and  _41
REMARK   19  A    between atoms: _44  and  _46
REMARK   20  A    between atoms: _46  and  _47
REMARK   21  A    between atoms: _46  and  _49
REMARK   22  A    between atoms: _49  and  _50
REMARK   23  A    between atoms: _53  and  _55
REMARK   24  A    between atoms: _55  and  _56
REMARK   25  A    between atoms: _55  and  _58
REMARK   26  A    between atoms: _58  and  _59
REMARK   27  A    between atoms: _59  and  _60
REMARK   28  A    between atoms: _60  and  _61
REMARK   29  A    between atoms: _61  and  _62
REMARK   30  A    between atoms: _66  and  _68
REMARK   31  A    between atoms: _68  and  _69
REMARK   32  A    between atoms: _68  and  _71
REMARK   33  A    between atoms: _71  and  _72
REMARK   34  A    between atoms: _75  and  _77
REMARK   35  A    between atoms: _77  and  _78
REMARK   36  A    between atoms: _77  and  _80
REMARK   37  A    between atoms: _80  and  _81
REMARK   38  A    between atoms: _81  and  _82
REMARK   39  A    between atoms: _85  and  _87
REMARK   40  A    between atoms: _87  and  _88
REMARK   41  A    between atoms: _87  and  _90
REMARK   42  A    between atoms: _90  and  _91
REMARK   43  A    between atoms: _94  and  _96
REMARK   44  A    between atoms: _96  and  _97
REMARK   45  A    between atoms: _96  and  _99
REMARK   46  A    between atoms: _99  and  _100
REMARK   47  A    between atoms: _103  and  _105
REMARK   48  A    between atoms: _105  and  _106
REMARK   49  A    between atoms: _105  and  _108
REMARK   50  A    between atoms: _108  and  _109
REMARK   51  A    between atoms: _109  and  _110
REMARK   52  A    between atoms: _110  and  _111
REMARK   53  A    between atoms: _111  and  _112
REMARK   54  A    between atoms: _116  and  _118
REMARK   55  A    between atoms: _118  and  _119
REMARK   56  A    between atoms: _118  and  _121
REMARK   57  A    between atoms: _121  and  _122
REMARK   58  A    between atoms: _125  and  _127
REMARK   59  A    between atoms: _127  and  _128
REMARK   60  A    between atoms: _130  and  _132
REMARK   61  A    between atoms: _132  and  _133
REMARK   62  A    between atoms: _135  and  _137
REMARK   63  A    between atoms: _137  and  _138
REMARK   64  A    between atoms: _137  and  _140
REMARK   65  A    between atoms: _140  and  _141
REMARK   66  A    between atoms: _146  and  _148
REMARK   67  A    between atoms: _148  and  _149
REMARK   68  A    between atoms: _148  and  _151
REMARK   69  A    between atoms: _151  and  _152
REMARK   70  A    between atoms: _152  and  _153
REMARK   71  A    between atoms: _156  and  _158
REMARK   72  A    between atoms: _158  and  _159
REMARK   73  A    between atoms: _158  and  _161
REMARK   74  A    between atoms: _161  and  _162
REMARK   75  A    between atoms: _168  and  _170
REMARK   76  A    between atoms: _170  and  _171
REMARK   77  A    between atoms: _170  and  _173
REMARK   78  A    between atoms: _173  and  _174
REMARK   79  A    between atoms: _179  and  _181
REMARK   80  A    between atoms: _181  and  _182
REMARK   81  A    between atoms: _181  and  _184
REMARK   82  A    between atoms: _187  and  _189
REMARK   83  A    between atoms: _189  and  _190
REMARK   84  A    between atoms: _192  and  _194
REMARK   85  A    between atoms: _194  and  _195
REMARK   86  A    between atoms: _194  and  _197
REMARK   87  A    between atoms: _197  and  _198
REMARK   88  A    between atoms: _201  and  _203
REMARK   89  A    between atoms: _203  and  _204
REMARK   90  A    between atoms: _206  and  _208
REMARK   91  A    between atoms: _208  and  _209
REMARK   92  A    between atoms: _208  and  _211
REMARK   93  A    between atoms: _211  and  _212
REMARK   94  A    between atoms: _215  and  _217
REMARK   95  A    between atoms: _217  and  _218
REMARK   96  A    between atoms: _217  and  _220
REMARK   97  A    between atoms: _220  and  _221
REMARK   98  A    between atoms: _223  and  _225
REMARK   99  A    between atoms: _225  and  _226
REMARK  100  A    between atoms: _228  and  _230
REMARK  101  A    between atoms: _230  and  _231
REMARK  102  A    between atoms: _233  and  _235
REMARK  103  A    between atoms: _235  and  _236
REMARK  104  A    between atoms: _238  and  _240
REMARK  105  A    between atoms: _240  and  _241
REMARK  106  A    between atoms: _240  and  _243
REMARK  107  A    between atoms: _243  and  _244
REMARK  108  A    between atoms: _244  and  _245
REMARK  109  A    between atoms: _247  and  _249
REMARK  110  A    between atoms: _249  and  _250
REMARK  111  A    between atoms: _249  and  _252
REMARK  112  A    between atoms: _252  and  _253
REMARK  113  A    between atoms: _256  and  _258
REMARK  114  A    between atoms: _258  and  _259
REMARK  115  A    between atoms: _258  and  _261
REMARK  116  A    between atoms: _261  and  _262
REMARK  117  A    between atoms: _262  and  _263
REMARK  118  A    between atoms: _268  and  _270
REMARK  119  A    between atoms: _270  and  _271
REMARK  120  A    between atoms: _273  and  _275
REMARK  121  A    between atoms: _275  and  _276
REMARK  122  A    between atoms: _275  and  _278
REMARK  123  A    between atoms: _278  and  _279
REMARK  124  A    between atoms: _282  and  _284
REMARK  125  A    between atoms: _284  and  _285
REMARK  126  A    between atoms: _284  and  _287
REMARK  127  A    between atoms: _287  and  _288
REMARK  128  A    between atoms: _291  and  _293
REMARK  129  A    between atoms: _293  and  _294
REMARK  130  A    between atoms: _293  and  _296
REMARK  131  A    between atoms: _296  and  _297
REMARK  132  A    between atoms: _302  and  _303
REMARK  133  A    between atoms: _305  and  _307
REMARK  134  A    between atoms: _307  and  _308
REMARK  135  A    between atoms: _307  and  _310
REMARK  136  A    between atoms: _310  and  _311
REMARK  137  A    between atoms: _311  and  _312
REMARK  138  A    between atoms: _312  and  _313
REMARK  139  A    between atoms: _313  and  _314
REMARK  140  A    between atoms: _318  and  _320
REMARK  141  A    between atoms: _320  and  _321
REMARK  142  A    between atoms: _320  and  _323
REMARK  143  A    between atoms: _323  and  _324
REMARK  144  A    between atoms: _327  and  _329
REMARK  145  A    between atoms: _329  and  _330
REMARK  146  A    between atoms: _329  and  _332
REMARK  147  A    between atoms: _332  and  _333
REMARK  148  A    between atoms: _336  and  _338
REMARK  149  A    between atoms: _338  and  _339
REMARK  150  A    between atoms: _338  and  _341
REMARK  151  A    between atoms: _341  and  _342
REMARK  152  A    between atoms: _345  and  _347
REMARK  153  A    between atoms: _347  and  _348
REMARK  154  A    between atoms: _350  and  _352
REMARK  155  A    between atoms: _352  and  _353
REMARK  156  A    between atoms: _352  and  _355
REMARK  157  A    between atoms: _355  and  _356
REMARK  158  A    between atoms: _358  and  _360
REMARK  159  A    between atoms: _360  and  _361
REMARK  160  A    between atoms: _360  and  _363
REMARK  161  A    between atoms: _363  and  _364
REMARK  162  A    between atoms: _366  and  _368
REMARK  163  A    between atoms: _368  and  _369
REMARK  164  A    between atoms: _368  and  _371
REMARK  165  A    between atoms: _371  and  _372
REMARK  166  A    between atoms: _378  and  _380
REMARK  167  A    between atoms: _380  and  _381
REMARK  168  A    between atoms: _380  and  _383
REMARK  169  A    between atoms: _383  and  _384
REMARK  170  A    between atoms: _389  and  _391
REMARK  171  A    between atoms: _391  and  _392
REMARK  172  A    between atoms: _391  and  _394
REMARK  173  A    between atoms: _394  and  _395
REMARK  174  A    between atoms: _400  and  _402
REMARK  175  A    between atoms: _402  and  _403
REMARK  176  A    between atoms: _402  and  _405
REMARK  177  A    between atoms: _405  and  _406
REMARK  178  A    between atoms: _411  and  _413
REMARK  179  A    between atoms: _413  and  _414
REMARK  180  A    between atoms: _413  and  _416
REMARK  181  A    between atoms: _416  and  _417
REMARK  182  A    between atoms: _420  and  _422
REMARK  183  A    between atoms: _422  and  _423
REMARK  184  A    between atoms: _425  and  _427
REMARK  185  A    between atoms: _427  and  _428
REMARK  186  A    between atoms: _431  and  _433
REMARK  187  A    between atoms: _433  and  _434
REMARK  188  A    between atoms: _433  and  _436
REMARK  189  A    between atoms: _436  and  _437
REMARK  190  A    between atoms: _443  and  _445
REMARK  191  A    between atoms: _445  and  _446
REMARK  192  A    between atoms: _445  and  _448
REMARK  193  A    between atoms: _448  and  _449
REMARK  194  A    between atoms: _451  and  _453
REMARK  195  A    between atoms: _453  and  _454
REMARK  196  A    between atoms: _456  and  _458
REMARK  197  A    between atoms: _458  and  _459
REMARK  198  A    between atoms: _458  and  _461
REMARK  199  A    between atoms: _461  and  _462
REMARK  200  A    between atoms: _465  and  _467
REMARK  201  A    between atoms: _467  and  _468
REMARK  202  A    between atoms: _467  and  _470
REMARK  203  A    between atoms: _470  and  _471
REMARK  204  A    between atoms: _474  and  _476
REMARK  205  A    between atoms: _476  and  _477
REMARK  206  A    between atoms: _480  and  _482
REMARK  207  A    between atoms: _482  and  _483
REMARK  208  A    between atoms: _486  and  _488
REMARK  209  A    between atoms: _488  and  _489
REMARK  210  A    between atoms: _491  and  _493
REMARK  211  A    between atoms: _493  and  _494
REMARK  212  A    between atoms: _493  and  _496
REMARK  213  A    between atoms: _496  and  _497
REMARK                            x       y       z     vdW  Elec       q    Type
REMARK                         _______ _______ _______ _____ _____    ______ ____
ROOT
ATOM      1  O   HOH     1      18.326  26.390   2.955  0.00  0.00    +0.000 OA
ENDROOT
TORSDOF 0
REMARK  Name = ../refined-set-2016/2ews/2ews_pocket.pdb
REMARK  213 active torsions:
REMARK  status: ('A' for Active; 'I' for Inactive)
REMARK    1  A    between atoms: _1  and  _3
REMARK    2  A    between atoms: _3  and  _4
REMARK    3  A    between atoms: _3  and  _6
REMARK    4  A    between atoms: _6  and  _7
REMARK    5  A    between atoms: _10  and  _12
REMARK    6  A    between atoms: _12  and  _13
REMARK    7  A    between atoms: _16  and  _18
REMARK    8  A    between atoms: _18  and  _19
REMARK    9  A    between atoms: _21  and  _23
REMARK   10  A    between atoms: _23  and  _24
REMARK   11  A    between atoms: _26  and  _28
REMARK   12  A    between atoms: _28  and  _29
REMARK   13  A    between atoms: _28  and  _31
REMARK   14  A    between atoms: _31  and  _32
REMARK   15  A    between atoms: _35  and  _37
REMARK   16  A    between atoms: _37  and  _38
REMARK   17  A    between atoms: _37  and  _40
REMARK   18  A    between atoms: _40  and  _41
REMARK   19  A    between atoms: _44  and  _46
REMARK   20  A    between atoms: _46  and  _47
REMARK   21  A    between atoms: _46  and  _49
REMARK   22  A    between atoms: _49  and  _50
REMARK   23  A    between atoms: _53  and  _55
REMARK   24  A    between atoms: _55  and  _56
REMARK   25  A    between atoms: _55  and  _58
REMARK   26  A    between atoms: _58  and  _59
REMARK   27  A    between atoms: _59  and  _60
REMARK   28  A    between atoms: _60  and  _61
REMARK   29  A    between atoms: _61  and  _62
REMARK   30  A    between atoms: _66  and  _68
REMARK   31  A    between atoms: _68  and  _69
REMARK   32  A    between atoms: _68  and  _71
REMARK   33  A    between atoms: _71  and  _72
REMARK   34  A    between atoms: _75  and  _77
REMARK   35  A    between atoms: _77  and  _78
REMARK   36  A    between atoms: _77  and  _80
REMARK   37  A    between atoms: _80  and  _81
REMARK   38  A    between atoms: _81  and  _82
REMARK   39  A    between atoms: _85  and  _87
REMARK   40  A    between atoms: _87  and  _88
REMARK   41  A    between atoms: _87  and  _90
REMARK   42  A    between atoms: _90  and  _91
REMARK   43  A    between atoms: _94  and  _96
REMARK   44  A    between atoms: _96  and  _97
REMARK   45  A    between atoms: _96  and  _99
REMARK   46  A    between atoms: _99  and  _100
REMARK   47  A    between atoms: _103  and  _105
REMARK   48  A    between atoms: _105  and  _106
REMARK   49  A    between atoms: _105  and  _108
REMARK   50  A    between atoms: _108  and  _109
REMARK   51  A    between atoms: _109  and  _110
REMARK   52  A    between atoms: _110  and  _111
REMARK   53  A    between atoms: _111  and  _112
REMARK   54  A    between atoms: _116  and  _118
REMARK   55  A    between atoms: _118  and  _119
REMARK   56  A    between atoms: _118  and  _121
REMARK   57  A    between atoms: _121  and  _122
REMARK   58  A    between atoms: _125  and  _127
REMARK   59  A    between atoms: _127  and  _128
REMARK   60  A    between atoms: _130  and  _132
REMARK   61  A    between atoms: _132  and  _133
REMARK   62  A    between atoms: _135  and  _137
REMARK   63  A    between atoms: _137  and  _138
REMARK   64  A    between atoms: _137  and  _140
REMARK   65  A    between atoms: _140  and  _141
REMARK   66  A    between atoms: _146  and  _148
REMARK   67  A    between atoms: _148  and  _149
REMARK   68  A    between atoms: _148  and  _151
REMARK   69  A    between atoms: _151  and  _152
REMARK   70  A    between atoms: _152  and  _153
REMARK   71  A    between atoms: _156  and  _158
REMARK   72  A    between atoms: _158  and  _159
REMARK   73  A    between atoms: _158  and  _161
REMARK   74  A    between atoms: _161  and  _162
REMARK   75  A    between atoms: _168  and  _170
REMARK   76  A    between atoms: _170  and  _171
REMARK   77  A    between atoms: _170  and  _173
REMARK   78  A    between atoms: _173  and  _174
REMARK   79  A    between atoms: _179  and  _181
REMARK   80  A    between atoms: _181  and  _182
REMARK   81  A    between atoms: _181  and  _184
REMARK   82  A    between atoms: _187  and  _189
REMARK   83  A    between atoms: _189  and  _190
REMARK   84  A    between atoms: _192  and  _194
REMARK   85  A    between atoms: _194  and  _195
REMARK   86  A    between atoms: _194  and  _197
REMARK   87  A    between atoms: _197  and  _198
REMARK   88  A    between atoms: _201  and  _203
REMARK   89  A    between atoms: _203  and  _204
REMARK   90  A    between atoms: _206  and  _208
REMARK   91  A    between atoms: _208  and  _209
REMARK   92  A    between atoms: _208  and  _211
REMARK   93  A    between atoms: _211  and  _212
REMARK   94  A    between atoms: _215  and  _217
REMARK   95  A    between atoms: _217  and  _218
REMARK   96  A    between atoms: _217  and  _220
REMARK   97  A    between atoms: _220  and  _221
REMARK   98  A    between atoms: _223  and  _225
REMARK   99  A    between atoms: _225  and  _226
REMARK  100  A    between atoms: _228  and  _230
REMARK  101  A    between atoms: _230  and  _231
REMARK  102  A    between atoms: _233  and  _235
REMARK  103  A    between atoms: _235  and  _236
REMARK  104  A    between atoms: _238  and  _240
REMARK  105  A    between atoms: _240  and  _241
REMARK  106  A    between atoms: _240  and  _243
REMARK  107  A    between atoms: _243  and  _244
REMARK  108  A    between atoms: _244  and  _245
REMARK  109  A    between atoms: _247  and  _249
REMARK  110  A    between atoms: _249  and  _250
REMARK  111  A    between atoms: _249  and  _252
REMARK  112  A    between atoms: _252  and  _253
REMARK  113  A    between atoms: _256  and  _258
REMARK  114  A    between atoms: _258  and  _259
REMARK  115  A    between atoms: _258  and  _261
REMARK  116  A    between atoms: _261  and  _262
REMARK  117  A    between atoms: _262  and  _263
REMARK  118  A    between atoms: _268  and  _270
REMARK  119  A    between atoms: _270  and  _271
REMARK  120  A    between atoms: _273  and  _275
REMARK  121  A    between atoms: _275  and  _276
REMARK  122  A    between atoms: _275  and  _278
REMARK  123  A    between atoms: _278  and  _279
REMARK  124  A    between atoms: _282  and  _284
REMARK  125  A    between atoms: _284  and  _285
REMARK  126  A    between atoms: _284  and  _287
REMARK  127  A    between atoms: _287  and  _288
REMARK  128  A    between atoms: _291  and  _293
REMARK  129  A    between atoms: _293  and  _294
REMARK  130  A    between atoms: _293  and  _296
REMARK  131  A    between atoms: _296  and  _297
REMARK  132  A    between atoms: _302  and  _303
REMARK  133  A    between atoms: _305  and  _307
REMARK  134  A    between atoms: _307  and  _308
REMARK  135  A    between atoms: _307  and  _310
REMARK  136  A    between atoms: _310  and  _311
REMARK  137  A    between atoms: _311  and  _312
REMARK  138  A    between atoms: _312  and  _313
REMARK  139  A    between atoms: _313  and  _314
REMARK  140  A    between atoms: _318  and  _320
REMARK  141  A    between atoms: _320  and  _321
REMARK  142  A    between atoms: _320  and  _323
REMARK  143  A    between atoms: _323  and  _324
REMARK  144  A    between atoms: _327  and  _329
REMARK  145  A    between atoms: _329  and  _330
REMARK  146  A    between atoms: _329  and  _332
REMARK  147  A    between atoms: _332  and  _333
REMARK  148  A    between atoms: _336  and  _338
REMARK  149  A    between atoms: _338  and  _339
REMARK  150  A    between atoms: _338  and  _341
REMARK  151  A    between atoms: _341  and  _342
REMARK  152  A    between atoms: _345  and  _347
REMARK  153  A    between atoms: _347  and  _348
REMARK  154  A    between atoms: _350  and  _352
REMARK  155  A    between atoms: _352  and  _353
REMARK  156  A    between atoms: _352  and  _355
REMARK  157  A    between atoms: _355  and  _356
REMARK  158  A    between atoms: _358  and  _360
REMARK  159  A    between atoms: _360  and  _361
REMARK  160  A    between atoms: _360  and  _363
REMARK  161  A    between atoms: _363  and  _364
REMARK  162  A    between atoms: _366  and  _368
REMARK  163  A    between atoms: _368  and  _369
REMARK  164  A    between atoms: _368  and  _371
REMARK  165  A    between atoms: _371  and  _372
REMARK  166  A    between atoms: _378  and  _380
REMARK  167  A    between atoms: _380  and  _381
REMARK  168  A    between atoms: _380  and  _383
REMARK  169  A    between atoms: _383  and  _384
REMARK  170  A    between atoms: _389  and  _391
REMARK  171  A    between atoms: _391  and  _392
REMARK  172  A    between atoms: _391  and  _394
REMARK  173  A    between atoms: _394  and  _395
REMARK  174  A    between atoms: _400  and  _402
REMARK  175  A    between atoms: _402  and  _403
REMARK  176  A    between atoms: _402  and  _405
REMARK  177  A    between atoms: _405  and  _406
REMARK  178  A    between atoms: _411  and  _413
REMARK  179  A    between atoms: _413  and  _414
REMARK  180  A    between atoms: _413  and  _416
REMARK  181  A    between atoms: _416  and  _417
REMARK  182  A    between atoms: _420  and  _422
REMARK  183  A    between atoms: _422  and  _423
REMARK  184  A    between atoms: _425  and  _427
REMARK  185  A    between atoms: _427  and  _428
REMARK  186  A    between atoms: _431  and  _433
REMARK  187  A    between atoms: _433  and  _434
REMARK  188  A    between atoms: _433  and  _436
REMARK  189  A    between atoms: _436  and  _437
REMARK  190  A    between atoms: _443  and  _445
REMARK  191  A    between atoms: _445  and  _446
REMARK  192  A    between atoms: _445  and  _448
REMARK  193  A    between atoms: _448  and  _449
REMARK  194  A    between atoms: _451  and  _453
REMARK  195  A    between atoms: _453  and  _454
REMARK  196  A    between atoms: _456  and  _458
REMARK  197  A    between atoms: _458  and  _459
REMARK  198  A    between atoms: _458  and  _461
REMARK  199  A    between atoms: _461  and  _462
REMARK  200  A    between atoms: _465  and  _467
REMARK  201  A    between atoms: _467  and  _468
REMARK  202  A    between atoms: _467  and  _470
REMARK  203  A    between atoms: _470  and  _471
REMARK  204  A    between atoms: _474  and  _476
REMARK  205  A    between atoms: _476  and  _477
REMARK  206  A    between atoms: _480  and  _482
REMARK  207  A    between atoms: _482  and  _483
REMARK  208  A    between atoms: _486  and  _488
REMARK  209  A    between atoms: _488  and  _489
REMARK  210  A    between atoms: _491  and  _493
REMARK  211  A    between atoms: _493  and  _494
REMARK  212  A    between atoms: _493  and  _496
REMARK  213  A    between atoms: _496  and  _497
REMARK                            x       y       z     vdW  Elec       q    Type
REMARK                         _______ _______ _______ _____ _____    ______ ____
ROOT
ATOM      1  O   HOH     1       8.547  24.822  -1.046  0.00  0.00    +0.000 OA
ENDROOT
TORSDOF 0
REMARK  Name = ../refined-set-2016/2ews/2ews_pocket.pdb
REMARK  213 active torsions:
REMARK  status: ('A' for Active; 'I' for Inactive)
REMARK    1  A    between atoms: _1  and  _3
REMARK    2  A    between atoms: _3  and  _4
REMARK    3  A    between atoms: _3  and  _6
REMARK    4  A    between atoms: _6  and  _7
REMARK    5  A    between atoms: _10  and  _12
REMARK    6  A    between atoms: _12  and  _13
REMARK    7  A    between atoms: _16  and  _18
REMARK    8  A    between atoms: _18  and  _19
REMARK    9  A    between atoms: _21  and  _23
REMARK   10  A    between atoms: _23  and  _24
REMARK   11  A    between atoms: _26  and  _28
REMARK   12  A    between atoms: _28  and  _29
REMARK   13  A    between atoms: _28  and  _31
REMARK   14  A    between atoms: _31  and  _32
REMARK   15  A    between atoms: _35  and  _37
REMARK   16  A    between atoms: _37  and  _38
REMARK   17  A    between atoms: _37  and  _40
REMARK   18  A    between atoms: _40  and  _41
REMARK   19  A    between atoms: _44  and  _46
REMARK   20  A    between atoms: _46  and  _47
REMARK   21  A    between atoms: _46  and  _49
REMARK   22  A    between atoms: _49  and  _50
REMARK   23  A    between atoms: _53  and  _55
REMARK   24  A    between atoms: _55  and  _56
REMARK   25  A    between atoms: _55  and  _58
REMARK   26  A    between atoms: _58  and  _59
REMARK   27  A    between atoms: _59  and  _60
REMARK   28  A    between atoms: _60  and  _61
REMARK   29  A    between atoms: _61  and  _62
REMARK   30  A    between atoms: _66  and  _68
REMARK   31  A    between atoms: _68  and  _69
REMARK   32  A    between atoms: _68  and  _71
REMARK   33  A    between atoms: _71  and  _72
REMARK   34  A    between atoms: _75  and  _77
REMARK   35  A    between atoms: _77  and  _78
REMARK   36  A    between atoms: _77  and  _80
REMARK   37  A    between atoms: _80  and  _81
REMARK   38  A    between atoms: _81  and  _82
REMARK   39  A    between atoms: _85  and  _87
REMARK   40  A    between atoms: _87  and  _88
REMARK   41  A    between atoms: _87  and  _90
REMARK   42  A    between atoms: _90  and  _91
REMARK   43  A    between atoms: _94  and  _96
REMARK   44  A    between atoms: _96  and  _97
REMARK   45  A    between atoms: _96  and  _99
REMARK   46  A    between atoms: _99  and  _100
REMARK   47  A    between atoms: _103  and  _105
REMARK   48  A    between atoms: _105  and  _106
REMARK   49  A    between atoms: _105  and  _108
REMARK   50  A    between atoms: _108  and  _109
REMARK   51  A    between atoms: _109  and  _110
REMARK   52  A    between atoms: _110  and  _111
REMARK   53  A    between atoms: _111  and  _112
REMARK   54  A    between atoms: _116  and  _118
REMARK   55  A    between atoms: _118  and  _119
REMARK   56  A    between atoms: _118  and  _121
REMARK   57  A    between atoms: _121  and  _122
REMARK   58  A    between atoms: _125  and  _127
REMARK   59  A    between atoms: _127  and  _128
REMARK   60  A    between atoms: _130  and  _132
REMARK   61  A    between atoms: _132  and  _133
REMARK   62  A    between atoms: _135  and  _137
REMARK   63  A    between atoms: _137  and  _138
REMARK   64  A    between atoms: _137  and  _140
REMARK   65  A    between atoms: _140  and  _141
REMARK   66  A    between atoms: _146  and  _148
REMARK   67  A    between atoms: _148  and  _149
REMARK   68  A    between atoms: _148  and  _151
REMARK   69  A    between atoms: _151  and  _152
REMARK   70  A    between atoms: _152  and  _153
REMARK   71  A    between atoms: _156  and  _158
REMARK   72  A    between atoms: _158  and  _159
REMARK   73  A    between atoms: _158  and  _161
REMARK   74  A    between atoms: _161  and  _162
REMARK   75  A    between atoms: _168  and  _170
REMARK   76  A    between atoms: _170  and  _171
REMARK   77  A    between atoms: _170  and  _173
REMARK   78  A    between atoms: _173  and  _174
REMARK   79  A    between atoms: _179  and  _181
REMARK   80  A    between atoms: _181  and  _182
REMARK   81  A    between atoms: _181  and  _184
REMARK   82  A    between atoms: _187  and  _189
REMARK   83  A    between atoms: _189  and  _190
REMARK   84  A    between atoms: _192  and  _194
REMARK   85  A    between atoms: _194  and  _195
REMARK   86  A    between atoms: _194  and  _197
REMARK   87  A    between atoms: _197  and  _198
REMARK   88  A    between atoms: _201  and  _203
REMARK   89  A    between atoms: _203  and  _204
REMARK   90  A    between atoms: _206  and  _208
REMARK   91  A    between atoms: _208  and  _209
REMARK   92  A    between atoms: _208  and  _211
REMARK   93  A    between atoms: _211  and  _212
REMARK   94  A    between atoms: _215  and  _217
REMARK   95  A    between atoms: _217  and  _218
REMARK   96  A    between atoms: _217  and  _220
REMARK   97  A    between atoms: _220  and  _221
REMARK   98  A    between atoms: _223  and  _225
REMARK   99  A    between atoms: _225  and  _226
REMARK  100  A    between atoms: _228  and  _230
REMARK  101  A    between atoms: _230  and  _231
REMARK  102  A    between atoms: _233  and  _235
REMARK  103  A    between atoms: _235  and  _236
REMARK  104  A    between atoms: _238  and  _240
REMARK  105  A    between atoms: _240  and  _241
REMARK  106  A    between atoms: _240  and  _243
REMARK  107  A    between atoms: _243  and  _244
REMARK  108  A    between atoms: _244  and  _245
REMARK  109  A    between atoms: _247  and  _249
REMARK  110  A    between atoms: _249  and  _250
REMARK  111  A    between atoms: _249  and  _252
REMARK  112  A    between atoms: _252  and  _253
REMARK  113  A    between atoms: _256  and  _258
REMARK  114  A    between atoms: _258  and  _259
REMARK  115  A    between atoms: _258  and  _261
REMARK  116  A    between atoms: _261  and  _262
REMARK  117  A    between atoms: _262  and  _263
REMARK  118  A    between atoms: _268  and  _270
REMARK  119  A    between atoms: _270  and  _271
REMARK  120  A    between atoms: _273  and  _275
REMARK  121  A    between atoms: _275  and  _276
REMARK  122  A    between atoms: _275  and  _278
REMARK  123  A    between atoms: _278  and  _279
REMARK  124  A    between atoms: _282  and  _284
REMARK  125  A    between atoms: _284  and  _285
REMARK  126  A    between atoms: _284  and  _287
REMARK  127  A    between atoms: _287  and  _288
REMARK  128  A    between atoms: _291  and  _293
REMARK  129  A    between atoms: _293  and  _294
REMARK  130  A    between atoms: _293  and  _296
REMARK  131  A    between atoms: _296  and  _297
REMARK  132  A    between atoms: _302  and  _303
REMARK  133  A    between atoms: _305  and  _307
REMARK  134  A    between atoms: _307  and  _308
REMARK  135  A    between atoms: _307  and  _310
REMARK  136  A    between atoms: _310  and  _311
REMARK  137  A    between atoms: _311  and  _312
REMARK  138  A    between atoms: _312  and  _313
REMARK  139  A    between atoms: _313  and  _314
REMARK  140  A    between atoms: _318  and  _320
REMARK  141  A    between atoms: _320  and  _321
REMARK  142  A    between atoms: _320  and  _323
REMARK  143  A    between atoms: _323  and  _324
REMARK  144  A    between atoms: _327  and  _329
REMARK  145  A    between atoms: _329  and  _330
REMARK  146  A    between atoms: _329  and  _332
REMARK  147  A    between atoms: _332  and  _333
REMARK  148  A    between atoms: _336  and  _338
REMARK  149  A    between atoms: _338  and  _339
REMARK  150  A    between atoms: _338  and  _341
REMARK  151  A    between atoms: _341  and  _342
REMARK  152  A    between atoms: _345  and  _347
REMARK  153  A    between atoms: _347  and  _348
REMARK  154  A    between atoms: _350  and  _352
REMARK  155  A    between atoms: _352  and  _353
REMARK  156  A    between atoms: _352  and  _355
REMARK  157  A    between atoms: _355  and  _356
REMARK  158  A    between atoms: _358  and  _360
REMARK  159  A    between atoms: _360  and  _361
REMARK  160  A    between atoms: _360  and  _363
REMARK  161  A    between atoms: _363  and  _364
REMARK  162  A    between atoms: _366  and  _368
REMARK  163  A    between atoms: _368  and  _369
REMARK  164  A    between atoms: _368  and  _371
REMARK  165  A    between atoms: _371  and  _372
REMARK  166  A    between atoms: _378  and  _380
REMARK  167  A    between atoms: _380  and  _381
REMARK  168  A    between atoms: _380  and  _383
REMARK  169  A    between atoms: _383  and  _384
REMARK  170  A    between atoms: _389  and  _391
REMARK  171  A    between atoms: _391  and  _392
REMARK  172  A    between atoms: _391  and  _394
REMARK  173  A    between atoms: _394  and  _395
REMARK  174  A    between atoms: _400  and  _402
REMARK  175  A    between atoms: _402  and  _403
REMARK  176  A    between atoms: _402  and  _405
REMARK  177  A    between atoms: _405  and  _406
REMARK  178  A    between atoms: _411  and  _413
REMARK  179  A    between atoms: _413  and  _414
REMARK  180  A    between atoms: _413  and  _416
REMARK  181  A    between atoms: _416  and  _417
REMARK  182  A    between atoms: _420  and  _422
REMARK  183  A    between atoms: _422  and  _423
REMARK  184  A    between atoms: _425  and  _427
REMARK  185  A    between atoms: _427  and  _428
REMARK  186  A    between atoms: _431  and  _433
REMARK  187  A    between atoms: _433  and  _434
REMARK  188  A    between atoms: _433  and  _436
REMARK  189  A    between atoms: _436  and  _437
REMARK  190  A    between atoms: _443  and  _445
REMARK  191  A    between atoms: _445  and  _446
REMARK  192  A    between atoms: _445  and  _448
REMARK  193  A    between atoms: _448  and  _449
REMARK  194  A    between atoms: _451  and  _453
REMARK  195  A    between atoms: _453  and  _454
REMARK  196  A    between atoms: _456  and  _458
REMARK  197  A    between atoms: _458  and  _459
REMARK  198  A    between atoms: _458  and  _461
REMARK  199  A    between atoms: _461  and  _462
REMARK  200  A    between atoms: _465  and  _467
REMARK  201  A    between atoms: _467  and  _468
REMARK  202  A    between atoms: _467  and  _470
REMARK  203  A    between atoms: _470  and  _471
REMARK  204  A    between atoms: _474  and  _476
REMARK  205  A    between atoms: _476  and  _477
REMARK  206  A    between atoms: _480  and  _482
REMARK  207  A    between atoms: _482  and  _483
REMARK  208  A    between atoms: _486  and  _488
REMARK  209  A    between atoms: _488  and  _489
REMARK  210  A    between atoms: _491  and  _493
REMARK  211  A    between atoms: _493  and  _494
REMARK  212  A    between atoms: _493  and  _496
REMARK  213  A    between atoms: _496  and  _497
REMARK                            x       y       z     vdW  Elec       q    Type
REMARK                         _______ _______ _______ _____ _____    ______ ____
ROOT
ATOM      1  O   HOH     1       3.194  28.146  -2.685  0.00  0.00    +0.000 OA
ENDROOT
TORSDOF 0
REMARK  Name = ../refined-set-2016/2ews/2ews_pocket.pdb
REMARK  213 active torsions:
REMARK  status: ('A' for Active; 'I' for Inactive)
REMARK    1  A    between atoms: _1  and  _3
REMARK    2  A    between atoms: _3  and  _4
REMARK    3  A    between atoms: _3  and  _6
REMARK    4  A    between atoms: _6  and  _7
REMARK    5  A    between atoms: _10  and  _12
REMARK    6  A    between atoms: _12  and  _13
REMARK    7  A    between atoms: _16  and  _18
REMARK    8  A    between atoms: _18  and  _19
REMARK    9  A    between atoms: _21  and  _23
REMARK   10  A    between atoms: _23  and  _24
REMARK   11  A    between atoms: _26  and  _28
REMARK   12  A    between atoms: _28  and  _29
REMARK   13  A    between atoms: _28  and  _31
REMARK   14  A    between atoms: _31  and  _32
REMARK   15  A    between atoms: _35  and  _37
REMARK   16  A    between atoms: _37  and  _38
REMARK   17  A    between atoms: _37  and  _40
REMARK   18  A    between atoms: _40  and  _41
REMARK   19  A    between atoms: _44  and  _46
REMARK   20  A    between atoms: _46  and  _47
REMARK   21  A    between atoms: _46  and  _49
REMARK   22  A    between atoms: _49  and  _50
REMARK   23  A    between atoms: _53  and  _55
REMARK   24  A    between atoms: _55  and  _56
REMARK   25  A    between atoms: _55  and  _58
REMARK   26  A    between atoms: _58  and  _59
REMARK   27  A    between atoms: _59  and  _60
REMARK   28  A    between atoms: _60  and  _61
REMARK   29  A    between atoms: _61  and  _62
REMARK   30  A    between atoms: _66  and  _68
REMARK   31  A    between atoms: _68  and  _69
REMARK   32  A    between atoms: _68  and  _71
REMARK   33  A    between atoms: _71  and  _72
REMARK   34  A    between atoms: _75  and  _77
REMARK   35  A    between atoms: _77  and  _78
REMARK   36  A    between atoms: _77  and  _80
REMARK   37  A    between atoms: _80  and  _81
REMARK   38  A    between atoms: _81  and  _82
REMARK   39  A    between atoms: _85  and  _87
REMARK   40  A    between atoms: _87  and  _88
REMARK   41  A    between atoms: _87  and  _90
REMARK   42  A    between atoms: _90  and  _91
REMARK   43  A    between atoms: _94  and  _96
REMARK   44  A    between atoms: _96  and  _97
REMARK   45  A    between atoms: _96  and  _99
REMARK   46  A    between atoms: _99  and  _100
REMARK   47  A    between atoms: _103  and  _105
REMARK   48  A    between atoms: _105  and  _106
REMARK   49  A    between atoms: _105  and  _108
REMARK   50  A    between atoms: _108  and  _109
REMARK   51  A    between atoms: _109  and  _110
REMARK   52  A    between atoms: _110  and  _111
REMARK   53  A    between atoms: _111  and  _112
REMARK   54  A    between atoms: _116  and  _118
REMARK   55  A    between atoms: _118  and  _119
REMARK   56  A    between atoms: _118  and  _121
REMARK   57  A    between atoms: _121  and  _122
REMARK   58  A    between atoms: _125  and  _127
REMARK   59  A    between atoms: _127  and  _128
REMARK   60  A    between atoms: _130  and  _132
REMARK   61  A    between atoms: _132  and  _133
REMARK   62  A    between atoms: _135  and  _137
REMARK   63  A    between atoms: _137  and  _138
REMARK   64  A    between atoms: _137  and  _140
REMARK   65  A    between atoms: _140  and  _141
REMARK   66  A    between atoms: _146  and  _148
REMARK   67  A    between atoms: _148  and  _149
REMARK   68  A    between atoms: _148  and  _151
REMARK   69  A    between atoms: _151  and  _152
REMARK   70  A    between atoms: _152  and  _153
REMARK   71  A    between atoms: _156  and  _158
REMARK   72  A    between atoms: _158  and  _159
REMARK   73  A    between atoms: _158  and  _161
REMARK   74  A    between atoms: _161  and  _162
REMARK   75  A    between atoms: _168  and  _170
REMARK   76  A    between atoms: _170  and  _171
REMARK   77  A    between atoms: _170  and  _173
REMARK   78  A    between atoms: _173  and  _174
REMARK   79  A    between atoms: _179  and  _181
REMARK   80  A    between atoms: _181  and  _182
REMARK   81  A    between atoms: _181  and  _184
REMARK   82  A    between atoms: _187  and  _189
REMARK   83  A    between atoms: _189  and  _190
REMARK   84  A    between atoms: _192  and  _194
REMARK   85  A    between atoms: _194  and  _195
REMARK   86  A    between atoms: _194  and  _197
REMARK   87  A    between atoms: _197  and  _198
REMARK   88  A    between atoms: _201  and  _203
REMARK   89  A    between atoms: _203  and  _204
REMARK   90  A    between atoms: _206  and  _208
REMARK   91  A    between atoms: _208  and  _209
REMARK   92  A    between atoms: _208  and  _211
REMARK   93  A    between atoms: _211  and  _212
REMARK   94  A    between atoms: _215  and  _217
REMARK   95  A    between atoms: _217  and  _218
REMARK   96  A    between atoms: _217  and  _220
REMARK   97  A    between atoms: _220  and  _221
REMARK   98  A    between atoms: _223  and  _225
REMARK   99  A    between atoms: _225  and  _226
REMARK  100  A    between atoms: _228  and  _230
REMARK  101  A    between atoms: _230  and  _231
REMARK  102  A    between atoms: _233  and  _235
REMARK  103  A    between atoms: _235  and  _236
REMARK  104  A    between atoms: _238  and  _240
REMARK  105  A    between atoms: _240  and  _241
REMARK  106  A    between atoms: _240  and  _243
REMARK  107  A    between atoms: _243  and  _244
REMARK  108  A    between atoms: _244  and  _245
REMARK  109  A    between atoms: _247  and  _249
REMARK  110  A    between atoms: _249  and  _250
REMARK  111  A    between atoms: _249  and  _252
REMARK  112  A    between atoms: _252  and  _253
REMARK  113  A    between atoms: _256  and  _258
REMARK  114  A    between atoms: _258  and  _259
REMARK  115  A    between atoms: _258  and  _261
REMARK  116  A    between atoms: _261  and  _262
REMARK  117  A    between atoms: _262  and  _263
REMARK  118  A    between atoms: _268  and  _270
REMARK  119  A    between atoms: _270  and  _271
REMARK  120  A    between atoms: _273  and  _275
REMARK  121  A    between atoms: _275  and  _276
REMARK  122  A    between atoms: _275  and  _278
REMARK  123  A    between atoms: _278  and  _279
REMARK  124  A    between atoms: _282  and  _284
REMARK  125  A    between atoms: _284  and  _285
REMARK  126  A    between atoms: _284  and  _287
REMARK  127  A    between atoms: _287  and  _288
REMARK  128  A    between atoms: _291  and  _293
REMARK  129  A    between atoms: _293  and  _294
REMARK  130  A    between atoms: _293  and  _296
REMARK  131  A    between atoms: _296  and  _297
REMARK  132  A    between atoms: _302  and  _303
REMARK  133  A    between atoms: _305  and  _307
REMARK  134  A    between atoms: _307  and  _308
REMARK  135  A    between atoms: _307  and  _310
REMARK  136  A    between atoms: _310  and  _311
REMARK  137  A    between atoms: _311  and  _312
REMARK  138  A    between atoms: _312  and  _313
REMARK  139  A    between atoms: _313  and  _314
REMARK  140  A    between atoms: _318  and  _320
REMARK  141  A    between atoms: _320  and  _321
REMARK  142  A    between atoms: _320  and  _323
REMARK  143  A    between atoms: _323  and  _324
REMARK  144  A    between atoms: _327  and  _329
REMARK  145  A    between atoms: _329  and  _330
REMARK  146  A    between atoms: _329  and  _332
REMARK  147  A    between atoms: _332  and  _333
REMARK  148  A    between atoms: _336  and  _338
REMARK  149  A    between atoms: _338  and  _339
REMARK  150  A    between atoms: _338  and  _341
REMARK  151  A    between atoms: _341  and  _342
REMARK  152  A    between atoms: _345  and  _347
REMARK  153  A    between atoms: _347  and  _348
REMARK  154  A    between atoms: _350  and  _352
REMARK  155  A    between atoms: _352  and  _353
REMARK  156  A    between atoms: _352  and  _355
REMARK  157  A    between atoms: _355  and  _356
REMARK  158  A    between atoms: _358  and  _360
REMARK  159  A    between atoms: _360  and  _361
REMARK  160  A    between atoms: _360  and  _363
REMARK  161  A    between atoms: _363  and  _364
REMARK  162  A    between atoms: _366  and  _368
REMARK  163  A    between atoms: _368  and  _369
REMARK  164  A    between atoms: _368  and  _371
REMARK  165  A    between atoms: _371  and  _372
REMARK  166  A    between atoms: _378  and  _380
REMARK  167  A    between atoms: _380  and  _381
REMARK  168  A    between atoms: _380  and  _383
REMARK  169  A    between atoms: _383  and  _384
REMARK  170  A    between atoms: _389  and  _391
REMARK  171  A    between atoms: _391  and  _392
REMARK  172  A    between atoms: _391  and  _394
REMARK  173  A    between atoms: _394  and  _395
REMARK  174  A    between atoms: _400  and  _402
REMARK  175  A    between atoms: _402  and  _403
REMARK  176  A    between atoms: _402  and  _405
REMARK  177  A    between atoms: _405  and  _406
REMARK  178  A    between atoms: _411  and  _413
REMARK  179  A    between atoms: _413  and  _414
REMARK  180  A    between atoms: _413  and  _416
REMARK  181  A    between atoms: _416  and  _417
REMARK  182  A    between atoms: _420  and  _422
REMARK  183  A    between atoms: _422  and  _423
REMARK  184  A    between atoms: _425  and  _427
REMARK  185  A    between atoms: _427  and  _428
REMARK  186  A    between atoms: _431  and  _433
REMARK  187  A    between atoms: _433  and  _434
REMARK  188  A    between atoms: _433  and  _436
REMARK  189  A    between atoms: _436  and  _437
REMARK  190  A    between atoms: _443  and  _445
REMARK  191  A    between atoms: _445  and  _446
REMARK  192  A    between atoms: _445  and  _448
REMARK  193  A    between atoms: _448  and  _449
REMARK  194  A    between atoms: _451  and  _453
REMARK  195  A    between atoms: _453  and  _454
REMARK  196  A    between atoms: _456  and  _458
REMARK  197  A    between atoms: _458  and  _459
REMARK  198  A    between atoms: _458  and  _461
REMARK  199  A    between atoms: _461  and  _462
REMARK  200  A    between atoms: _465  and  _467
REMARK  201  A    between atoms: _467  and  _468
REMARK  202  A    between atoms: _467  and  _470
REMARK  203  A    between atoms: _470  and  _471
REMARK  204  A    between atoms: _474  and  _476
REMARK  205  A    between atoms: _476  and  _477
REMARK  206  A    between atoms: _480  and  _482
REMARK  207  A    between atoms: _482  and  _483
REMARK  208  A    between atoms: _486  and  _488
REMARK  209  A    between atoms: _488  and  _489
REMARK  210  A    between atoms: _491  and  _493
REMARK  211  A    between atoms: _493  and  _494
REMARK  212  A    between atoms: _493  and  _496
REMARK  213  A    between atoms: _496  and  _497
REMARK                            x       y       z     vdW  Elec       q    Type
REMARK                         _______ _______ _______ _____ _____    ______ ____
ROOT
ATOM      1  O   HOH     1      19.405  20.969  -2.799  0.00  0.00    +0.000 OA
ENDROOT
TORSDOF 0
REMARK  Name = ../refined-set-2016/2ews/2ews_pocket.pdb
REMARK  213 active torsions:
REMARK  status: ('A' for Active; 'I' for Inactive)
REMARK    1  A    between atoms: _1  and  _3
REMARK    2  A    between atoms: _3  and  _4
REMARK    3  A    between atoms: _3  and  _6
REMARK    4  A    between atoms: _6  and  _7
REMARK    5  A    between atoms: _10  and  _12
REMARK    6  A    between atoms: _12  and  _13
REMARK    7  A    between atoms: _16  and  _18
REMARK    8  A    between atoms: _18  and  _19
REMARK    9  A    between atoms: _21  and  _23
REMARK   10  A    between atoms: _23  and  _24
REMARK   11  A    between atoms: _26  and  _28
REMARK   12  A    between atoms: _28  and  _29
REMARK   13  A    between atoms: _28  and  _31
REMARK   14  A    between atoms: _31  and  _32
REMARK   15  A    between atoms: _35  and  _37
REMARK   16  A    between atoms: _37  and  _38
REMARK   17  A    between atoms: _37  and  _40
REMARK   18  A    between atoms: _40  and  _41
REMARK   19  A    between atoms: _44  and  _46
REMARK   20  A    between atoms: _46  and  _47
REMARK   21  A    between atoms: _46  and  _49
REMARK   22  A    between atoms: _49  and  _50
REMARK   23  A    between atoms: _53  and  _55
REMARK   24  A    between atoms: _55  and  _56
REMARK   25  A    between atoms: _55  and  _58
REMARK   26  A    between atoms: _58  and  _59
REMARK   27  A    between atoms: _59  and  _60
REMARK   28  A    between atoms: _60  and  _61
REMARK   29  A    between atoms: _61  and  _62
REMARK   30  A    between atoms: _66  and  _68
REMARK   31  A    between atoms: _68  and  _69
REMARK   32  A    between atoms: _68  and  _71
REMARK   33  A    between atoms: _71  and  _72
REMARK   34  A    between atoms: _75  and  _77
REMARK   35  A    between atoms: _77  and  _78
REMARK   36  A    between atoms: _77  and  _80
REMARK   37  A    between atoms: _80  and  _81
REMARK   38  A    between atoms: _81  and  _82
REMARK   39  A    between atoms: _85  and  _87
REMARK   40  A    between atoms: _87  and  _88
REMARK   41  A    between atoms: _87  and  _90
REMARK   42  A    between atoms: _90  and  _91
REMARK   43  A    between atoms: _94  and  _96
REMARK   44  A    between atoms: _96  and  _97
REMARK   45  A    between atoms: _96  and  _99
REMARK   46  A    between atoms: _99  and  _100
REMARK   47  A    between atoms: _103  and  _105
REMARK   48  A    between atoms: _105  and  _106
REMARK   49  A    between atoms: _105  and  _108
REMARK   50  A    between atoms: _108  and  _109
REMARK   51  A    between atoms: _109  and  _110
REMARK   52  A    between atoms: _110  and  _111
REMARK   53  A    between atoms: _111  and  _112
REMARK   54  A    between atoms: _116  and  _118
REMARK   55  A    between atoms: _118  and  _119
REMARK   56  A    between atoms: _118  and  _121
REMARK   57  A    between atoms: _121  and  _122
REMARK   58  A    between atoms: _125  and  _127
REMARK   59  A    between atoms: _127  and  _128
REMARK   60  A    between atoms: _130  and  _132
REMARK   61  A    between atoms: _132  and  _133
REMARK   62  A    between atoms: _135  and  _137
REMARK   63  A    between atoms: _137  and  _138
REMARK   64  A    between atoms: _137  and  _140
REMARK   65  A    between atoms: _140  and  _141
REMARK   66  A    between atoms: _146  and  _148
REMARK   67  A    between atoms: _148  and  _149
REMARK   68  A    between atoms: _148  and  _151
REMARK   69  A    between atoms: _151  and  _152
REMARK   70  A    between atoms: _152  and  _153
REMARK   71  A    between atoms: _156  and  _158
REMARK   72  A    between atoms: _158  and  _159
REMARK   73  A    between atoms: _158  and  _161
REMARK   74  A    between atoms: _161  and  _162
REMARK   75  A    between atoms: _168  and  _170
REMARK   76  A    between atoms: _170  and  _171
REMARK   77  A    between atoms: _170  and  _173
REMARK   78  A    between atoms: _173  and  _174
REMARK   79  A    between atoms: _179  and  _181
REMARK   80  A    between atoms: _181  and  _182
REMARK   81  A    between atoms: _181  and  _184
REMARK   82  A    between atoms: _187  and  _189
REMARK   83  A    between atoms: _189  and  _190
REMARK   84  A    between atoms: _192  and  _194
REMARK   85  A    between atoms: _194  and  _195
REMARK   86  A    between atoms: _194  and  _197
REMARK   87  A    between atoms: _197  and  _198
REMARK   88  A    between atoms: _201  and  _203
REMARK   89  A    between atoms: _203  and  _204
REMARK   90  A    between atoms: _206  and  _208
REMARK   91  A    between atoms: _208  and  _209
REMARK   92  A    between atoms: _208  and  _211
REMARK   93  A    between atoms: _211  and  _212
REMARK   94  A    between atoms: _215  and  _217
REMARK   95  A    between atoms: _217  and  _218
REMARK   96  A    between atoms: _217  and  _220
REMARK   97  A    between atoms: _220  and  _221
REMARK   98  A    between atoms: _223  and  _225
REMARK   99  A    between atoms: _225  and  _226
REMARK  100  A    between atoms: _228  and  _230
REMARK  101  A    between atoms: _230  and  _231
REMARK  102  A    between atoms: _233  and  _235
REMARK  103  A    between atoms: _235  and  _236
REMARK  104  A    between atoms: _238  and  _240
REMARK  105  A    between atoms: _240  and  _241
REMARK  106  A    between atoms: _240  and  _243
REMARK  107  A    between atoms: _243  and  _244
REMARK  108  A    between atoms: _244  and  _245
REMARK  109  A    between atoms: _247  and  _249
REMARK  110  A    between atoms: _249  and  _250
REMARK  111  A    between atoms: _249  and  _252
REMARK  112  A    between atoms: _252  and  _253
REMARK  113  A    between atoms: _256  and  _258
REMARK  114  A    between atoms: _258  and  _259
REMARK  115  A    between atoms: _258  and  _261
REMARK  116  A    between atoms: _261  and  _262
REMARK  117  A    between atoms: _262  and  _263
REMARK  118  A    between atoms: _268  and  _270
REMARK  119  A    between atoms: _270  and  _271
REMARK  120  A    between atoms: _273  and  _275
REMARK  121  A    between atoms: _275  and  _276
REMARK  122  A    between atoms: _275  and  _278
REMARK  123  A    between atoms: _278  and  _279
REMARK  124  A    between atoms: _282  and  _284
REMARK  125  A    between atoms: _284  and  _285
REMARK  126  A    between atoms: _284  and  _287
REMARK  127  A    between atoms: _287  and  _288
REMARK  128  A    between atoms: _291  and  _293
REMARK  129  A    between atoms: _293  and  _294
REMARK  130  A    between atoms: _293  and  _296
REMARK  131  A    between atoms: _296  and  _297
REMARK  132  A    between atoms: _302  and  _303
REMARK  133  A    between atoms: _305  and  _307
REMARK  134  A    between atoms: _307  and  _308
REMARK  135  A    between atoms: _307  and  _310
REMARK  136  A    between atoms: _310  and  _311
REMARK  137  A    between atoms: _311  and  _312
REMARK  138  A    between atoms: _312  and  _313
REMARK  139  A    between atoms: _313  and  _314
REMARK  140  A    between atoms: _318  and  _320
REMARK  141  A    between atoms: _320  and  _321
REMARK  142  A    between atoms: _320  and  _323
REMARK  143  A    between atoms: _323  and  _324
REMARK  144  A    between atoms: _327  and  _329
REMARK  145  A    between atoms: _329  and  _330
REMARK  146  A    between atoms: _329  and  _332
REMARK  147  A    between atoms: _332  and  _333
REMARK  148  A    between atoms: _336  and  _338
REMARK  149  A    between atoms: _338  and  _339
REMARK  150  A    between atoms: _338  and  _341
REMARK  151  A    between atoms: _341  and  _342
REMARK  152  A    between atoms: _345  and  _347
REMARK  153  A    between atoms: _347  and  _348
REMARK  154  A    between atoms: _350  and  _352
REMARK  155  A    between atoms: _352  and  _353
REMARK  156  A    between atoms: _352  and  _355
REMARK  157  A    between atoms: _355  and  _356
REMARK  158  A    between atoms: _358  and  _360
REMARK  159  A    between atoms: _360  and  _361
REMARK  160  A    between atoms: _360  and  _363
REMARK  161  A    between atoms: _363  and  _364
REMARK  162  A    between atoms: _366  and  _368
REMARK  163  A    between atoms: _368  and  _369
REMARK  164  A    between atoms: _368  and  _371
REMARK  165  A    between atoms: _371  and  _372
REMARK  166  A    between atoms: _378  and  _380
REMARK  167  A    between atoms: _380  and  _381
REMARK  168  A    between atoms: _380  and  _383
REMARK  169  A    between atoms: _383  and  _384
REMARK  170  A    between atoms: _389  and  _391
REMARK  171  A    between atoms: _391  and  _392
REMARK  172  A    between atoms: _391  and  _394
REMARK  173  A    between atoms: _394  and  _395
REMARK  174  A    between atoms: _400  and  _402
REMARK  175  A    between atoms: _402  and  _403
REMARK  176  A    between atoms: _402  and  _405
REMARK  177  A    between atoms: _405  and  _406
REMARK  178  A    between atoms: _411  and  _413
REMARK  179  A    between atoms: _413  and  _414
REMARK  180  A    between atoms: _413  and  _416
REMARK  181  A    between atoms: _416  and  _417
REMARK  182  A    between atoms: _420  and  _422
REMARK  183  A    between atoms: _422  and  _423
REMARK  184  A    between atoms: _425  and  _427
REMARK  185  A    between atoms: _427  and  _428
REMARK  186  A    between atoms: _431  and  _433
REMARK  187  A    between atoms: _433  and  _434
REMARK  188  A    between atoms: _433  and  _436
REMARK  189  A    between atoms: _436  and  _437
REMARK  190  A    between atoms: _443  and  _445
REMARK  191  A    between atoms: _445  and  _446
REMARK  192  A    between atoms: _445  and  _448
REMARK  193  A    between atoms: _448  and  _449
REMARK  194  A    between atoms: _451  and  _453
REMARK  195  A    between atoms: _453  and  _454
REMARK  196  A    between atoms: _456  and  _458
REMARK  197  A    between atoms: _458  and  _459
REMARK  198  A    between atoms: _458  and  _461
REMARK  199  A    between atoms: _461  and  _462
REMARK  200  A    between atoms: _465  and  _467
REMARK  201  A    between atoms: _467  and  _468
REMARK  202  A    between atoms: _467  and  _470
REMARK  203  A    between atoms: _470  and  _471
REMARK  204  A    between atoms: _474  and  _476
REMARK  205  A    between atoms: _476  and  _477
REMARK  206  A    between atoms: _480  and  _482
REMARK  207  A    between atoms: _482  and  _483
REMARK  208  A    between atoms: _486  and  _488
REMARK  209  A    between atoms: _488  and  _489
REMARK  210  A    between atoms: _491  and  _493
REMARK  211  A    between atoms: _493  and  _494
REMARK  212  A    between atoms: _493  and  _496
REMARK  213  A    between atoms: _496  and  _497
REMARK                            x       y       z     vdW  Elec       q    Type
REMARK                         _______ _______ _______ _____ _____    ______ ____
ROOT
ATOM      1  O   HOH     1      22.809  20.699  -5.682  0.00  0.00    +0.000 OA
ENDROOT
TORSDOF 0
REMARK  Name = ../refined-set-2016/2ews/2ews_pocket.pdb
REMARK  213 active torsions:
REMARK  status: ('A' for Active; 'I' for Inactive)
REMARK    1  A    between atoms: _1  and  _3
REMARK    2  A    between atoms: _3  and  _4
REMARK    3  A    between atoms: _3  and  _6
REMARK    4  A    between atoms: _6  and  _7
REMARK    5  A    between atoms: _10  and  _12
REMARK    6  A    between atoms: _12  and  _13
REMARK    7  A    between atoms: _16  and  _18
REMARK    8  A    between atoms: _18  and  _19
REMARK    9  A    between atoms: _21  and  _23
REMARK   10  A    between atoms: _23  and  _24
REMARK   11  A    between atoms: _26  and  _28
REMARK   12  A    between atoms: _28  and  _29
REMARK   13  A    between atoms: _28  and  _31
REMARK   14  A    between atoms: _31  and  _32
REMARK   15  A    between atoms: _35  and  _37
REMARK   16  A    between atoms: _37  and  _38
REMARK   17  A    between atoms: _37  and  _40
REMARK   18  A    between atoms: _40  and  _41
REMARK   19  A    between atoms: _44  and  _46
REMARK   20  A    between atoms: _46  and  _47
REMARK   21  A    between atoms: _46  and  _49
REMARK   22  A    between atoms: _49  and  _50
REMARK   23  A    between atoms: _53  and  _55
REMARK   24  A    between atoms: _55  and  _56
REMARK   25  A    between atoms: _55  and  _58
REMARK   26  A    between atoms: _58  and  _59
REMARK   27  A    between atoms: _59  and  _60
REMARK   28  A    between atoms: _60  and  _61
REMARK   29  A    between atoms: _61  and  _62
REMARK   30  A    between atoms: _66  and  _68
REMARK   31  A    between atoms: _68  and  _69
REMARK   32  A    between atoms: _68  and  _71
REMARK   33  A    between atoms: _71  and  _72
REMARK   34  A    between atoms: _75  and  _77
REMARK   35  A    between atoms: _77  and  _78
REMARK   36  A    between atoms: _77  and  _80
REMARK   37  A    between atoms: _80  and  _81
REMARK   38  A    between atoms: _81  and  _82
REMARK   39  A    between atoms: _85  and  _87
REMARK   40  A    between atoms: _87  and  _88
REMARK   41  A    between atoms: _87  and  _90
REMARK   42  A    between atoms: _90  and  _91
REMARK   43  A    between atoms: _94  and  _96
REMARK   44  A    between atoms: _96  and  _97
REMARK   45  A    between atoms: _96  and  _99
REMARK   46  A    between atoms: _99  and  _100
REMARK   47  A    between atoms: _103  and  _105
REMARK   48  A    between atoms: _105  and  _106
REMARK   49  A    between atoms: _105  and  _108
REMARK   50  A    between atoms: _108  and  _109
REMARK   51  A    between atoms: _109  and  _110
REMARK   52  A    between atoms: _110  and  _111
REMARK   53  A    between atoms: _111  and  _112
REMARK   54  A    between atoms: _116  and  _118
REMARK   55  A    between atoms: _118  and  _119
REMARK   56  A    between atoms: _118  and  _121
REMARK   57  A    between atoms: _121  and  _122
REMARK   58  A    between atoms: _125  and  _127
REMARK   59  A    between atoms: _127  and  _128
REMARK   60  A    between atoms: _130  and  _132
REMARK   61  A    between atoms: _132  and  _133
REMARK   62  A    between atoms: _135  and  _137
REMARK   63  A    between atoms: _137  and  _138
REMARK   64  A    between atoms: _137  and  _140
REMARK   65  A    between atoms: _140  and  _141
REMARK   66  A    between atoms: _146  and  _148
REMARK   67  A    between atoms: _148  and  _149
REMARK   68  A    between atoms: _148  and  _151
REMARK   69  A    between atoms: _151  and  _152
REMARK   70  A    between atoms: _152  and  _153
REMARK   71  A    between atoms: _156  and  _158
REMARK   72  A    between atoms: _158  and  _159
REMARK   73  A    between atoms: _158  and  _161
REMARK   74  A    between atoms: _161  and  _162
REMARK   75  A    between atoms: _168  and  _170
REMARK   76  A    between atoms: _170  and  _171
REMARK   77  A    between atoms: _170  and  _173
REMARK   78  A    between atoms: _173  and  _174
REMARK   79  A    between atoms: _179  and  _181
REMARK   80  A    between atoms: _181  and  _182
REMARK   81  A    between atoms: _181  and  _184
REMARK   82  A    between atoms: _187  and  _189
REMARK   83  A    between atoms: _189  and  _190
REMARK   84  A    between atoms: _192  and  _194
REMARK   85  A    between atoms: _194  and  _195
REMARK   86  A    between atoms: _194  and  _197
REMARK   87  A    between atoms: _197  and  _198
REMARK   88  A    between atoms: _201  and  _203
REMARK   89  A    between atoms: _203  and  _204
REMARK   90  A    between atoms: _206  and  _208
REMARK   91  A    between atoms: _208  and  _209
REMARK   92  A    between atoms: _208  and  _211
REMARK   93  A    between atoms: _211  and  _212
REMARK   94  A    between atoms: _215  and  _217
REMARK   95  A    between atoms: _217  and  _218
REMARK   96  A    between atoms: _217  and  _220
REMARK   97  A    between atoms: _220  and  _221
REMARK   98  A    between atoms: _223  and  _225
REMARK   99  A    between atoms: _225  and  _226
REMARK  100  A    between atoms: _228  and  _230
REMARK  101  A    between atoms: _230  and  _231
REMARK  102  A    between atoms: _233  and  _235
REMARK  103  A    between atoms: _235  and  _236
REMARK  104  A    between atoms: _238  and  _240
REMARK  105  A    between atoms: _240  and  _241
REMARK  106  A    between atoms: _240  and  _243
REMARK  107  A    between atoms: _243  and  _244
REMARK  108  A    between atoms: _244  and  _245
REMARK  109  A    between atoms: _247  and  _249
REMARK  110  A    between atoms: _249  and  _250
REMARK  111  A    between atoms: _249  and  _252
REMARK  112  A    between atoms: _252  and  _253
REMARK  113  A    between atoms: _256  and  _258
REMARK  114  A    between atoms: _258  and  _259
REMARK  115  A    between atoms: _258  and  _261
REMARK  116  A    between atoms: _261  and  _262
REMARK  117  A    between atoms: _262  and  _263
REMARK  118  A    between atoms: _268  and  _270
REMARK  119  A    between atoms: _270  and  _271
REMARK  120  A    between atoms: _273  and  _275
REMARK  121  A    between atoms: _275  and  _276
REMARK  122  A    between atoms: _275  and  _278
REMARK  123  A    between atoms: _278  and  _279
REMARK  124  A    between atoms: _282  and  _284
REMARK  125  A    between atoms: _284  and  _285
REMARK  126  A    between atoms: _284  and  _287
REMARK  127  A    between atoms: _287  and  _288
REMARK  128  A    between atoms: _291  and  _293
REMARK  129  A    between atoms: _293  and  _294
REMARK  130  A    between atoms: _293  and  _296
REMARK  131  A    between atoms: _296  and  _297
REMARK  132  A    between atoms: _302  and  _303
REMARK  133  A    between atoms: _305  and  _307
REMARK  134  A    between atoms: _307  and  _308
REMARK  135  A    between atoms: _307  and  _310
REMARK  136  A    between atoms: _310  and  _311
REMARK  137  A    between atoms: _311  and  _312
REMARK  138  A    between atoms: _312  and  _313
REMARK  139  A    between atoms: _313  and  _314
REMARK  140  A    between atoms: _318  and  _320
REMARK  141  A    between atoms: _320  and  _321
REMARK  142  A    between atoms: _320  and  _323
REMARK  143  A    between atoms: _323  and  _324
REMARK  144  A    between atoms: _327  and  _329
REMARK  145  A    between atoms: _329  and  _330
REMARK  146  A    between atoms: _329  and  _332
REMARK  147  A    between atoms: _332  and  _333
REMARK  148  A    between atoms: _336  and  _338
REMARK  149  A    between atoms: _338  and  _339
REMARK  150  A    between atoms: _338  and  _341
REMARK  151  A    between atoms: _341  and  _342
REMARK  152  A    between atoms: _345  and  _347
REMARK  153  A    between atoms: _347  and  _348
REMARK  154  A    between atoms: _350  and  _352
REMARK  155  A    between atoms: _352  and  _353
REMARK  156  A    between atoms: _352  and  _355
REMARK  157  A    between atoms: _355  and  _356
REMARK  158  A    between atoms: _358  and  _360
REMARK  159  A    between atoms: _360  and  _361
REMARK  160  A    between atoms: _360  and  _363
REMARK  161  A    between atoms: _363  and  _364
REMARK  162  A    between atoms: _366  and  _368
REMARK  163  A    between atoms: _368  and  _369
REMARK  164  A    between atoms: _368  and  _371
REMARK  165  A    between atoms: _371  and  _372
REMARK  166  A    between atoms: _378  and  _380
REMARK  167  A    between atoms: _380  and  _381
REMARK  168  A    between atoms: _380  and  _383
REMARK  169  A    between atoms: _383  and  _384
REMARK  170  A    between atoms: _389  and  _391
REMARK  171  A    between atoms: _391  and  _392
REMARK  172  A    between atoms: _391  and  _394
REMARK  173  A    between atoms: _394  and  _395
REMARK  174  A    between atoms: _400  and  _402
REMARK  175  A    between atoms: _402  and  _403
REMARK  176  A    between atoms: _402  and  _405
REMARK  177  A    between atoms: _405  and  _406
REMARK  178  A    between atoms: _411  and  _413
REMARK  179  A    between atoms: _413  and  _414
REMARK  180  A    between atoms: _413  and  _416
REMARK  181  A    between atoms: _416  and  _417
REMARK  182  A    between atoms: _420  and  _422
REMARK  183  A    between atoms: _422  and  _423
REMARK  184  A    between atoms: _425  and  _427
REMARK  185  A    between atoms: _427  and  _428
REMARK  186  A    between atoms: _431  and  _433
REMARK  187  A    between atoms: _433  and  _434
REMARK  188  A    between atoms: _433  and  _436
REMARK  189  A    between atoms: _436  and  _437
REMARK  190  A    between atoms: _443  and  _445
REMARK  191  A    between atoms: _445  and  _446
REMARK  192  A    between atoms: _445  and  _448
REMARK  193  A    between atoms: _448  and  _449
REMARK  194  A    between atoms: _451  and  _453
REMARK  195  A    between atoms: _453  and  _454
REMARK  196  A    between atoms: _456  and  _458
REMARK  197  A    between atoms: _458  and  _459
REMARK  198  A    between atoms: _458  and  _461
REMARK  199  A    between atoms: _461  and  _462
REMARK  200  A    between atoms: _465  and  _467
REMARK  201  A    between atoms: _467  and  _468
REMARK  202  A    between atoms: _467  and  _470
REMARK  203  A    between atoms: _470  and  _471
REMARK  204  A    between atoms: _474  and  _476
REMARK  205  A    between atoms: _476  and  _477
REMARK  206  A    between atoms: _480  and  _482
REMARK  207  A    between atoms: _482  and  _483
REMARK  208  A    between atoms: _486  and  _488
REMARK  209  A    between atoms: _488  and  _489
REMARK  210  A    between atoms: _491  and  _493
REMARK  211  A    between atoms: _493  and  _494
REMARK  212  A    between atoms: _493  and  _496
REMARK  213  A    between atoms: _496  and  _497
REMARK                            x       y       z     vdW  Elec       q    Type
REMARK                         _______ _______ _______ _____ _____    ______ ____
ROOT
ATOM      1  O   HOH     1      26.387  23.971  -4.395  0.00  0.00    +0.000 OA
ENDROOT
TORSDOF 0
REMARK  Name = ../refined-set-2016/2ews/2ews_pocket.pdb
REMARK  213 active torsions:
REMARK  status: ('A' for Active; 'I' for Inactive)
REMARK    1  A    between atoms: _1  and  _3
REMARK    2  A    between atoms: _3  and  _4
REMARK    3  A    between atoms: _3  and  _6
REMARK    4  A    between atoms: _6  and  _7
REMARK    5  A    between atoms: _10  and  _12
REMARK    6  A    between atoms: _12  and  _13
REMARK    7  A    between atoms: _16  and  _18
REMARK    8  A    between atoms: _18  and  _19
REMARK    9  A    between atoms: _21  and  _23
REMARK   10  A    between atoms: _23  and  _24
REMARK   11  A    between atoms: _26  and  _28
REMARK   12  A    between atoms: _28  and  _29
REMARK   13  A    between atoms: _28  and  _31
REMARK   14  A    between atoms: _31  and  _32
REMARK   15  A    between atoms: _35  and  _37
REMARK   16  A    between atoms: _37  and  _38
REMARK   17  A    between atoms: _37  and  _40
REMARK   18  A    between atoms: _40  and  _41
REMARK   19  A    between atoms: _44  and  _46
REMARK   20  A    between atoms: _46  and  _47
REMARK   21  A    between atoms: _46  and  _49
REMARK   22  A    between atoms: _49  and  _50
REMARK   23  A    between atoms: _53  and  _55
REMARK   24  A    between atoms: _55  and  _56
REMARK   25  A    between atoms: _55  and  _58
REMARK   26  A    between atoms: _58  and  _59
REMARK   27  A    between atoms: _59  and  _60
REMARK   28  A    between atoms: _60  and  _61
REMARK   29  A    between atoms: _61  and  _62
REMARK   30  A    between atoms: _66  and  _68
REMARK   31  A    between atoms: _68  and  _69
REMARK   32  A    between atoms: _68  and  _71
REMARK   33  A    between atoms: _71  and  _72
REMARK   34  A    between atoms: _75  and  _77
REMARK   35  A    between atoms: _77  and  _78
REMARK   36  A    between atoms: _77  and  _80
REMARK   37  A    between atoms: _80  and  _81
REMARK   38  A    between atoms: _81  and  _82
REMARK   39  A    between atoms: _85  and  _87
REMARK   40  A    between atoms: _87  and  _88
REMARK   41  A    between atoms: _87  and  _90
REMARK   42  A    between atoms: _90  and  _91
REMARK   43  A    between atoms: _94  and  _96
REMARK   44  A    between atoms: _96  and  _97
REMARK   45  A    between atoms: _96  and  _99
REMARK   46  A    between atoms: _99  and  _100
REMARK   47  A    between atoms: _103  and  _105
REMARK   48  A    between atoms: _105  and  _106
REMARK   49  A    between atoms: _105  and  _108
REMARK   50  A    between atoms: _108  and  _109
REMARK   51  A    between atoms: _109  and  _110
REMARK   52  A    between atoms: _110  and  _111
REMARK   53  A    between atoms: _111  and  _112
REMARK   54  A    between atoms: _116  and  _118
REMARK   55  A    between atoms: _118  and  _119
REMARK   56  A    between atoms: _118  and  _121
REMARK   57  A    between atoms: _121  and  _122
REMARK   58  A    between atoms: _125  and  _127
REMARK   59  A    between atoms: _127  and  _128
REMARK   60  A    between atoms: _130  and  _132
REMARK   61  A    between atoms: _132  and  _133
REMARK   62  A    between atoms: _135  and  _137
REMARK   63  A    between atoms: _137  and  _138
REMARK   64  A    between atoms: _137  and  _140
REMARK   65  A    between atoms: _140  and  _141
REMARK   66  A    between atoms: _146  and  _148
REMARK   67  A    between atoms: _148  and  _149
REMARK   68  A    between atoms: _148  and  _151
REMARK   69  A    between atoms: _151  and  _152
REMARK   70  A    between atoms: _152  and  _153
REMARK   71  A    between atoms: _156  and  _158
REMARK   72  A    between atoms: _158  and  _159
REMARK   73  A    between atoms: _158  and  _161
REMARK   74  A    between atoms: _161  and  _162
REMARK   75  A    between atoms: _168  and  _170
REMARK   76  A    between atoms: _170  and  _171
REMARK   77  A    between atoms: _170  and  _173
REMARK   78  A    between atoms: _173  and  _174
REMARK   79  A    between atoms: _179  and  _181
REMARK   80  A    between atoms: _181  and  _182
REMARK   81  A    between atoms: _181  and  _184
REMARK   82  A    between atoms: _187  and  _189
REMARK   83  A    between atoms: _189  and  _190
REMARK   84  A    between atoms: _192  and  _194
REMARK   85  A    between atoms: _194  and  _195
REMARK   86  A    between atoms: _194  and  _197
REMARK   87  A    between atoms: _197  and  _198
REMARK   88  A    between atoms: _201  and  _203
REMARK   89  A    between atoms: _203  and  _204
REMARK   90  A    between atoms: _206  and  _208
REMARK   91  A    between atoms: _208  and  _209
REMARK   92  A    between atoms: _208  and  _211
REMARK   93  A    between atoms: _211  and  _212
REMARK   94  A    between atoms: _215  and  _217
REMARK   95  A    between atoms: _217  and  _218
REMARK   96  A    between atoms: _217  and  _220
REMARK   97  A    between atoms: _220  and  _221
REMARK   98  A    between atoms: _223  and  _225
REMARK   99  A    between atoms: _225  and  _226
REMARK  100  A    between atoms: _228  and  _230
REMARK  101  A    between atoms: _230  and  _231
REMARK  102  A    between atoms: _233  and  _235
REMARK  103  A    between atoms: _235  and  _236
REMARK  104  A    between atoms: _238  and  _240
REMARK  105  A    between atoms: _240  and  _241
REMARK  106  A    between atoms: _240  and  _243
REMARK  107  A    between atoms: _243  and  _244
REMARK  108  A    between atoms: _244  and  _245
REMARK  109  A    between atoms: _247  and  _249
REMARK  110  A    between atoms: _249  and  _250
REMARK  111  A    between atoms: _249  and  _252
REMARK  112  A    between atoms: _252  and  _253
REMARK  113  A    between atoms: _256  and  _258
REMARK  114  A    between atoms: _258  and  _259
REMARK  115  A    between atoms: _258  and  _261
REMARK  116  A    between atoms: _261  and  _262
REMARK  117  A    between atoms: _262  and  _263
REMARK  118  A    between atoms: _268  and  _270
REMARK  119  A    between atoms: _270  and  _271
REMARK  120  A    between atoms: _273  and  _275
REMARK  121  A    between atoms: _275  and  _276
REMARK  122  A    between atoms: _275  and  _278
REMARK  123  A    between atoms: _278  and  _279
REMARK  124  A    between atoms: _282  and  _284
REMARK  125  A    between atoms: _284  and  _285
REMARK  126  A    between atoms: _284  and  _287
REMARK  127  A    between atoms: _287  and  _288
REMARK  128  A    between atoms: _291  and  _293
REMARK  129  A    between atoms: _293  and  _294
REMARK  130  A    between atoms: _293  and  _296
REMARK  131  A    between atoms: _296  and  _297
REMARK  132  A    between atoms: _302  and  _303
REMARK  133  A    between atoms: _305  and  _307
REMARK  134  A    between atoms: _307  and  _308
REMARK  135  A    between atoms: _307  and  _310
REMARK  136  A    between atoms: _310  and  _311
REMARK  137  A    between atoms: _311  and  _312
REMARK  138  A    between atoms: _312  and  _313
REMARK  139  A    between atoms: _313  and  _314
REMARK  140  A    between atoms: _318  and  _320
REMARK  141  A    between atoms: _320  and  _321
REMARK  142  A    between atoms: _320  and  _323
REMARK  143  A    between atoms: _323  and  _324
REMARK  144  A    between atoms: _327  and  _329
REMARK  145  A    between atoms: _329  and  _330
REMARK  146  A    between atoms: _329  and  _332
REMARK  147  A    between atoms: _332  and  _333
REMARK  148  A    between atoms: _336  and  _338
REMARK  149  A    between atoms: _338  and  _339
REMARK  150  A    between atoms: _338  and  _341
REMARK  151  A    between atoms: _341  and  _342
REMARK  152  A    between atoms: _345  and  _347
REMARK  153  A    between atoms: _347  and  _348
REMARK  154  A    between atoms: _350  and  _352
REMARK  155  A    between atoms: _352  and  _353
REMARK  156  A    between atoms: _352  and  _355
REMARK  157  A    between atoms: _355  and  _356
REMARK  158  A    between atoms: _358  and  _360
REMARK  159  A    between atoms: _360  and  _361
REMARK  160  A    between atoms: _360  and  _363
REMARK  161  A    between atoms: _363  and  _364
REMARK  162  A    between atoms: _366  and  _368
REMARK  163  A    between atoms: _368  and  _369
REMARK  164  A    between atoms: _368  and  _371
REMARK  165  A    between atoms: _371  and  _372
REMARK  166  A    between atoms: _378  and  _380
REMARK  167  A    between atoms: _380  and  _381
REMARK  168  A    between atoms: _380  and  _383
REMARK  169  A    between atoms: _383  and  _384
REMARK  170  A    between atoms: _389  and  _391
REMARK  171  A    between atoms: _391  and  _392
REMARK  172  A    between atoms: _391  and  _394
REMARK  173  A    between atoms: _394  and  _395
REMARK  174  A    between atoms: _400  and  _402
REMARK  175  A    between atoms: _402  and  _403
REMARK  176  A    between atoms: _402  and  _405
REMARK  177  A    between atoms: _405  and  _406
REMARK  178  A    between atoms: _411  and  _413
REMARK  179  A    between atoms: _413  and  _414
REMARK  180  A    between atoms: _413  and  _416
REMARK  181  A    between atoms: _416  and  _417
REMARK  182  A    between atoms: _420  and  _422
REMARK  183  A    between atoms: _422  and  _423
REMARK  184  A    between atoms: _425  and  _427
REMARK  185  A    between atoms: _427  and  _428
REMARK  186  A    between atoms: _431  and  _433
REMARK  187  A    between atoms: _433  and  _434
REMARK  188  A    between atoms: _433  and  _436
REMARK  189  A    between atoms: _436  and  _437
REMARK  190  A    between atoms: _443  and  _445
REMARK  191  A    between atoms: _445  and  _446
REMARK  192  A    between atoms: _445  and  _448
REMARK  193  A    between atoms: _448  and  _449
REMARK  194  A    between atoms: _451  and  _453
REMARK  195  A    between atoms: _453  and  _454
REMARK  196  A    between atoms: _456  and  _458
REMARK  197  A    between atoms: _458  and  _459
REMARK  198  A    between atoms: _458  and  _461
REMARK  199  A    between atoms: _461  and  _462
REMARK  200  A    between atoms: _465  and  _467
REMARK  201  A    between atoms: _467  and  _468
REMARK  202  A    between atoms: _467  and  _470
REMARK  203  A    between atoms: _470  and  _471
REMARK  204  A    between atoms: _474  and  _476
REMARK  205  A    between atoms: _476  and  _477
REMARK  206  A    between atoms: _480  and  _482
REMARK  207  A    between atoms: _482  and  _483
REMARK  208  A    between atoms: _486  and  _488
REMARK  209  A    between atoms: _488  and  _489
REMARK  210  A    between atoms: _491  and  _493
REMARK  211  A    between atoms: _493  and  _494
REMARK  212  A    between atoms: _493  and  _496
REMARK  213  A    between atoms: _496  and  _497
REMARK                            x       y       z     vdW  Elec       q    Type
REMARK                         _______ _______ _______ _____ _____    ______ ____
ROOT
ATOM      1  O   HOH     1       4.856  26.392  -8.075  0.00  0.00    +0.000 OA
ENDROOT
TORSDOF 0
REMARK  Name = ../refined-set-2016/2ews/2ews_pocket.pdb
REMARK  213 active torsions:
REMARK  status: ('A' for Active; 'I' for Inactive)
REMARK    1  A    between atoms: _1  and  _3
REMARK    2  A    between atoms: _3  and  _4
REMARK    3  A    between atoms: _3  and  _6
REMARK    4  A    between atoms: _6  and  _7
REMARK    5  A    between atoms: _10  and  _12
REMARK    6  A    between atoms: _12  and  _13
REMARK    7  A    between atoms: _16  and  _18
REMARK    8  A    between atoms: _18  and  _19
REMARK    9  A    between atoms: _21  and  _23
REMARK   10  A    between atoms: _23  and  _24
REMARK   11  A    between atoms: _26  and  _28
REMARK   12  A    between atoms: _28  and  _29
REMARK   13  A    between atoms: _28  and  _31
REMARK   14  A    between atoms: _31  and  _32
REMARK   15  A    between atoms: _35  and  _37
REMARK   16  A    between atoms: _37  and  _38
REMARK   17  A    between atoms: _37  and  _40
REMARK   18  A    between atoms: _40  and  _41
REMARK   19  A    between atoms: _44  and  _46
REMARK   20  A    between atoms: _46  and  _47
REMARK   21  A    between atoms: _46  and  _49
REMARK   22  A    between atoms: _49  and  _50
REMARK   23  A    between atoms: _53  and  _55
REMARK   24  A    between atoms: _55  and  _56
REMARK   25  A    between atoms: _55  and  _58
REMARK   26  A    between atoms: _58  and  _59
REMARK   27  A    between atoms: _59  and  _60
REMARK   28  A    between atoms: _60  and  _61
REMARK   29  A    between atoms: _61  and  _62
REMARK   30  A    between atoms: _66  and  _68
REMARK   31  A    between atoms: _68  and  _69
REMARK   32  A    between atoms: _68  and  _71
REMARK   33  A    between atoms: _71  and  _72
REMARK   34  A    between atoms: _75  and  _77
REMARK   35  A    between atoms: _77  and  _78
REMARK   36  A    between atoms: _77  and  _80
REMARK   37  A    between atoms: _80  and  _81
REMARK   38  A    between atoms: _81  and  _82
REMARK   39  A    between atoms: _85  and  _87
REMARK   40  A    between atoms: _87  and  _88
REMARK   41  A    between atoms: _87  and  _90
REMARK   42  A    between atoms: _90  and  _91
REMARK   43  A    between atoms: _94  and  _96
REMARK   44  A    between atoms: _96  and  _97
REMARK   45  A    between atoms: _96  and  _99
REMARK   46  A    between atoms: _99  and  _100
REMARK   47  A    between atoms: _103  and  _105
REMARK   48  A    between atoms: _105  and  _106
REMARK   49  A    between atoms: _105  and  _108
REMARK   50  A    between atoms: _108  and  _109
REMARK   51  A    between atoms: _109  and  _110
REMARK   52  A    between atoms: _110  and  _111
REMARK   53  A    between atoms: _111  and  _112
REMARK   54  A    between atoms: _116  and  _118
REMARK   55  A    between atoms: _118  and  _119
REMARK   56  A    between atoms: _118  and  _121
REMARK   57  A    between atoms: _121  and  _122
REMARK   58  A    between atoms: _125  and  _127
REMARK   59  A    between atoms: _127  and  _128
REMARK   60  A    between atoms: _130  and  _132
REMARK   61  A    between atoms: _132  and  _133
REMARK   62  A    between atoms: _135  and  _137
REMARK   63  A    between atoms: _137  and  _138
REMARK   64  A    between atoms: _137  and  _140
REMARK   65  A    between atoms: _140  and  _141
REMARK   66  A    between atoms: _146  and  _148
REMARK   67  A    between atoms: _148  and  _149
REMARK   68  A    between atoms: _148  and  _151
REMARK   69  A    between atoms: _151  and  _152
REMARK   70  A    between atoms: _152  and  _153
REMARK   71  A    between atoms: _156  and  _158
REMARK   72  A    between atoms: _158  and  _159
REMARK   73  A    between atoms: _158  and  _161
REMARK   74  A    between atoms: _161  and  _162
REMARK   75  A    between atoms: _168  and  _170
REMARK   76  A    between atoms: _170  and  _171
REMARK   77  A    between atoms: _170  and  _173
REMARK   78  A    between atoms: _173  and  _174
REMARK   79  A    between atoms: _179  and  _181
REMARK   80  A    between atoms: _181  and  _182
REMARK   81  A    between atoms: _181  and  _184
REMARK   82  A    between atoms: _187  and  _189
REMARK   83  A    between atoms: _189  and  _190
REMARK   84  A    between atoms: _192  and  _194
REMARK   85  A    between atoms: _194  and  _195
REMARK   86  A    between atoms: _194  and  _197
REMARK   87  A    between atoms: _197  and  _198
REMARK   88  A    between atoms: _201  and  _203
REMARK   89  A    between atoms: _203  and  _204
REMARK   90  A    between atoms: _206  and  _208
REMARK   91  A    between atoms: _208  and  _209
REMARK   92  A    between atoms: _208  and  _211
REMARK   93  A    between atoms: _211  and  _212
REMARK   94  A    between atoms: _215  and  _217
REMARK   95  A    between atoms: _217  and  _218
REMARK   96  A    between atoms: _217  and  _220
REMARK   97  A    between atoms: _220  and  _221
REMARK   98  A    between atoms: _223  and  _225
REMARK   99  A    between atoms: _225  and  _226
REMARK  100  A    between atoms: _228  and  _230
REMARK  101  A    between atoms: _230  and  _231
REMARK  102  A    between atoms: _233  and  _235
REMARK  103  A    between atoms: _235  and  _236
REMARK  104  A    between atoms: _238  and  _240
REMARK  105  A    between atoms: _240  and  _241
REMARK  106  A    between atoms: _240  and  _243
REMARK  107  A    between atoms: _243  and  _244
REMARK  108  A    between atoms: _244  and  _245
REMARK  109  A    between atoms: _247  and  _249
REMARK  110  A    between atoms: _249  and  _250
REMARK  111  A    between atoms: _249  and  _252
REMARK  112  A    between atoms: _252  and  _253
REMARK  113  A    between atoms: _256  and  _258
REMARK  114  A    between atoms: _258  and  _259
REMARK  115  A    between atoms: _258  and  _261
REMARK  116  A    between atoms: _261  and  _262
REMARK  117  A    between atoms: _262  and  _263
REMARK  118  A    between atoms: _268  and  _270
REMARK  119  A    between atoms: _270  and  _271
REMARK  120  A    between atoms: _273  and  _275
REMARK  121  A    between atoms: _275  and  _276
REMARK  122  A    between atoms: _275  and  _278
REMARK  123  A    between atoms: _278  and  _279
REMARK  124  A    between atoms: _282  and  _284
REMARK  125  A    between atoms: _284  and  _285
REMARK  126  A    between atoms: _284  and  _287
REMARK  127  A    between atoms: _287  and  _288
REMARK  128  A    between atoms: _291  and  _293
REMARK  129  A    between atoms: _293  and  _294
REMARK  130  A    between atoms: _293  and  _296
REMARK  131  A    between atoms: _296  and  _297
REMARK  132  A    between atoms: _302  and  _303
REMARK  133  A    between atoms: _305  and  _307
REMARK  134  A    between atoms: _307  and  _308
REMARK  135  A    between atoms: _307  and  _310
REMARK  136  A    between atoms: _310  and  _311
REMARK  137  A    between atoms: _311  and  _312
REMARK  138  A    between atoms: _312  and  _313
REMARK  139  A    between atoms: _313  and  _314
REMARK  140  A    between atoms: _318  and  _320
REMARK  141  A    between atoms: _320  and  _321
REMARK  142  A    between atoms: _320  and  _323
REMARK  143  A    between atoms: _323  and  _324
REMARK  144  A    between atoms: _327  and  _329
REMARK  145  A    between atoms: _329  and  _330
REMARK  146  A    between atoms: _329  and  _332
REMARK  147  A    between atoms: _332  and  _333
REMARK  148  A    between atoms: _336  and  _338
REMARK  149  A    between atoms: _338  and  _339
REMARK  150  A    between atoms: _338  and  _341
REMARK  151  A    between atoms: _341  and  _342
REMARK  152  A    between atoms: _345  and  _347
REMARK  153  A    between atoms: _347  and  _348
REMARK  154  A    between atoms: _350  and  _352
REMARK  155  A    between atoms: _352  and  _353
REMARK  156  A    between atoms: _352  and  _355
REMARK  157  A    between atoms: _355  and  _356
REMARK  158  A    between atoms: _358  and  _360
REMARK  159  A    between atoms: _360  and  _361
REMARK  160  A    between atoms: _360  and  _363
REMARK  161  A    between atoms: _363  and  _364
REMARK  162  A    between atoms: _366  and  _368
REMARK  163  A    between atoms: _368  and  _369
REMARK  164  A    between atoms: _368  and  _371
REMARK  165  A    between atoms: _371  and  _372
REMARK  166  A    between atoms: _378  and  _380
REMARK  167  A    between atoms: _380  and  _381
REMARK  168  A    between atoms: _380  and  _383
REMARK  169  A    between atoms: _383  and  _384
REMARK  170  A    between atoms: _389  and  _391
REMARK  171  A    between atoms: _391  and  _392
REMARK  172  A    between atoms: _391  and  _394
REMARK  173  A    between atoms: _394  and  _395
REMARK  174  A    between atoms: _400  and  _402
REMARK  175  A    between atoms: _402  and  _403
REMARK  176  A    between atoms: _402  and  _405
REMARK  177  A    between atoms: _405  and  _406
REMARK  178  A    between atoms: _411  and  _413
REMARK  179  A    between atoms: _413  and  _414
REMARK  180  A    between atoms: _413  and  _416
REMARK  181  A    between atoms: _416  and  _417
REMARK  182  A    between atoms: _420  and  _422
REMARK  183  A    between atoms: _422  and  _423
REMARK  184  A    between atoms: _425  and  _427
REMARK  185  A    between atoms: _427  and  _428
REMARK  186  A    between atoms: _431  and  _433
REMARK  187  A    between atoms: _433  and  _434
REMARK  188  A    between atoms: _433  and  _436
REMARK  189  A    between atoms: _436  and  _437
REMARK  190  A    between atoms: _443  and  _445
REMARK  191  A    between atoms: _445  and  _446
REMARK  192  A    between atoms: _445  and  _448
REMARK  193  A    between atoms: _448  and  _449
REMARK  194  A    between atoms: _451  and  _453
REMARK  195  A    between atoms: _453  and  _454
REMARK  196  A    between atoms: _456  and  _458
REMARK  197  A    between atoms: _458  and  _459
REMARK  198  A    between atoms: _458  and  _461
REMARK  199  A    between atoms: _461  and  _462
REMARK  200  A    between atoms: _465  and  _467
REMARK  201  A    between atoms: _467  and  _468
REMARK  202  A    between atoms: _467  and  _470
REMARK  203  A    between atoms: _470  and  _471
REMARK  204  A    between atoms: _474  and  _476
REMARK  205  A    between atoms: _476  and  _477
REMARK  206  A    between atoms: _480  and  _482
REMARK  207  A    between atoms: _482  and  _483
REMARK  208  A    between atoms: _486  and  _488
REMARK  209  A    between atoms: _488  and  _489
REMARK  210  A    between atoms: _491  and  _493
REMARK  211  A    between atoms: _493  and  _494
REMARK  212  A    between atoms: _493  and  _496
REMARK  213  A    between atoms: _496  and  _497
REMARK                            x       y       z     vdW  Elec       q    Type
REMARK                         _______ _______ _______ _____ _____    ______ ____
ROOT
ATOM      1  O   HOH     1      22.036  24.739   2.389  0.00  0.00    +0.000 OA
ENDROOT
TORSDOF 0
REMARK  Name = ../refined-set-2016/2ews/2ews_pocket.pdb
REMARK  213 active torsions:
REMARK  status: ('A' for Active; 'I' for Inactive)
REMARK    1  A    between atoms: _1  and  _3
REMARK    2  A    between atoms: _3  and  _4
REMARK    3  A    between atoms: _3  and  _6
REMARK    4  A    between atoms: _6  and  _7
REMARK    5  A    between atoms: _10  and  _12
REMARK    6  A    between atoms: _12  and  _13
REMARK    7  A    between atoms: _16  and  _18
REMARK    8  A    between atoms: _18  and  _19
REMARK    9  A    between atoms: _21  and  _23
REMARK   10  A    between atoms: _23  and  _24
REMARK   11  A    between atoms: _26  and  _28
REMARK   12  A    between atoms: _28  and  _29
REMARK   13  A    between atoms: _28  and  _31
REMARK   14  A    between atoms: _31  and  _32
REMARK   15  A    between atoms: _35  and  _37
REMARK   16  A    between atoms: _37  and  _38
REMARK   17  A    between atoms: _37  and  _40
REMARK   18  A    between atoms: _40  and  _41
REMARK   19  A    between atoms: _44  and  _46
REMARK   20  A    between atoms: _46  and  _47
REMARK   21  A    between atoms: _46  and  _49
REMARK   22  A    between atoms: _49  and  _50
REMARK   23  A    between atoms: _53  and  _55
REMARK   24  A    between atoms: _55  and  _56
REMARK   25  A    between atoms: _55  and  _58
REMARK   26  A    between atoms: _58  and  _59
REMARK   27  A    between atoms: _59  and  _60
REMARK   28  A    between atoms: _60  and  _61
REMARK   29  A    between atoms: _61  and  _62
REMARK   30  A    between atoms: _66  and  _68
REMARK   31  A    between atoms: _68  and  _69
REMARK   32  A    between atoms: _68  and  _71
REMARK   33  A    between atoms: _71  and  _72
REMARK   34  A    between atoms: _75  and  _77
REMARK   35  A    between atoms: _77  and  _78
REMARK   36  A    between atoms: _77  and  _80
REMARK   37  A    between atoms: _80  and  _81
REMARK   38  A    between atoms: _81  and  _82
REMARK   39  A    between atoms: _85  and  _87
REMARK   40  A    between atoms: _87  and  _88
REMARK   41  A    between atoms: _87  and  _90
REMARK   42  A    between atoms: _90  and  _91
REMARK   43  A    between atoms: _94  and  _96
REMARK   44  A    between atoms: _96  and  _97
REMARK   45  A    between atoms: _96  and  _99
REMARK   46  A    between atoms: _99  and  _100
REMARK   47  A    between atoms: _103  and  _105
REMARK   48  A    between atoms: _105  and  _106
REMARK   49  A    between atoms: _105  and  _108
REMARK   50  A    between atoms: _108  and  _109
REMARK   51  A    between atoms: _109  and  _110
REMARK   52  A    between atoms: _110  and  _111
REMARK   53  A    between atoms: _111  and  _112
REMARK   54  A    between atoms: _116  and  _118
REMARK   55  A    between atoms: _118  and  _119
REMARK   56  A    between atoms: _118  and  _121
REMARK   57  A    between atoms: _121  and  _122
REMARK   58  A    between atoms: _125  and  _127
REMARK   59  A    between atoms: _127  and  _128
REMARK   60  A    between atoms: _130  and  _132
REMARK   61  A    between atoms: _132  and  _133
REMARK   62  A    between atoms: _135  and  _137
REMARK   63  A    between atoms: _137  and  _138
REMARK   64  A    between atoms: _137  and  _140
REMARK   65  A    between atoms: _140  and  _141
REMARK   66  A    between atoms: _146  and  _148
REMARK   67  A    between atoms: _148  and  _149
REMARK   68  A    between atoms: _148  and  _151
REMARK   69  A    between atoms: _151  and  _152
REMARK   70  A    between atoms: _152  and  _153
REMARK   71  A    between atoms: _156  and  _158
REMARK   72  A    between atoms: _158  and  _159
REMARK   73  A    between atoms: _158  and  _161
REMARK   74  A    between atoms: _161  and  _162
REMARK   75  A    between atoms: _168  and  _170
REMARK   76  A    between atoms: _170  and  _171
REMARK   77  A    between atoms: _170  and  _173
REMARK   78  A    between atoms: _173  and  _174
REMARK   79  A    between atoms: _179  and  _181
REMARK   80  A    between atoms: _181  and  _182
REMARK   81  A    between atoms: _181  and  _184
REMARK   82  A    between atoms: _187  and  _189
REMARK   83  A    between atoms: _189  and  _190
REMARK   84  A    between atoms: _192  and  _194
REMARK   85  A    between atoms: _194  and  _195
REMARK   86  A    between atoms: _194  and  _197
REMARK   87  A    between atoms: _197  and  _198
REMARK   88  A    between atoms: _201  and  _203
REMARK   89  A    between atoms: _203  and  _204
REMARK   90  A    between atoms: _206  and  _208
REMARK   91  A    between atoms: _208  and  _209
REMARK   92  A    between atoms: _208  and  _211
REMARK   93  A    between atoms: _211  and  _212
REMARK   94  A    between atoms: _215  and  _217
REMARK   95  A    between atoms: _217  and  _218
REMARK   96  A    between atoms: _217  and  _220
REMARK   97  A    between atoms: _220  and  _221
REMARK   98  A    between atoms: _223  and  _225
REMARK   99  A    between atoms: _225  and  _226
REMARK  100  A    between atoms: _228  and  _230
REMARK  101  A    between atoms: _230  and  _231
REMARK  102  A    between atoms: _233  and  _235
REMARK  103  A    between atoms: _235  and  _236
REMARK  104  A    between atoms: _238  and  _240
REMARK  105  A    between atoms: _240  and  _241
REMARK  106  A    between atoms: _240  and  _243
REMARK  107  A    between atoms: _243  and  _244
REMARK  108  A    between atoms: _244  and  _245
REMARK  109  A    between atoms: _247  and  _249
REMARK  110  A    between atoms: _249  and  _250
REMARK  111  A    between atoms: _249  and  _252
REMARK  112  A    between atoms: _252  and  _253
REMARK  113  A    between atoms: _256  and  _258
REMARK  114  A    between atoms: _258  and  _259
REMARK  115  A    between atoms: _258  and  _261
REMARK  116  A    between atoms: _261  and  _262
REMARK  117  A    between atoms: _262  and  _263
REMARK  118  A    between atoms: _268  and  _270
REMARK  119  A    between atoms: _270  and  _271
REMARK  120  A    between atoms: _273  and  _275
REMARK  121  A    between atoms: _275  and  _276
REMARK  122  A    between atoms: _275  and  _278
REMARK  123  A    between atoms: _278  and  _279
REMARK  124  A    between atoms: _282  and  _284
REMARK  125  A    between atoms: _284  and  _285
REMARK  126  A    between atoms: _284  and  _287
REMARK  127  A    between atoms: _287  and  _288
REMARK  128  A    between atoms: _291  and  _293
REMARK  129  A    between atoms: _293  and  _294
REMARK  130  A    between atoms: _293  and  _296
REMARK  131  A    between atoms: _296  and  _297
REMARK  132  A    between atoms: _302  and  _303
REMARK  133  A    between atoms: _305  and  _307
REMARK  134  A    between atoms: _307  and  _308
REMARK  135  A    between atoms: _307  and  _310
REMARK  136  A    between atoms: _310  and  _311
REMARK  137  A    between atoms: _311  and  _312
REMARK  138  A    between atoms: _312  and  _313
REMARK  139  A    between atoms: _313  and  _314
REMARK  140  A    between atoms: _318  and  _320
REMARK  141  A    between atoms: _320  and  _321
REMARK  142  A    between atoms: _320  and  _323
REMARK  143  A    between atoms: _323  and  _324
REMARK  144  A    between atoms: _327  and  _329
REMARK  145  A    between atoms: _329  and  _330
REMARK  146  A    between atoms: _329  and  _332
REMARK  147  A    between atoms: _332  and  _333
REMARK  148  A    between atoms: _336  and  _338
REMARK  149  A    between atoms: _338  and  _339
REMARK  150  A    between atoms: _338  and  _341
REMARK  151  A    between atoms: _341  and  _342
REMARK  152  A    between atoms: _345  and  _347
REMARK  153  A    between atoms: _347  and  _348
REMARK  154  A    between atoms: _350  and  _352
REMARK  155  A    between atoms: _352  and  _353
REMARK  156  A    between atoms: _352  and  _355
REMARK  157  A    between atoms: _355  and  _356
REMARK  158  A    between atoms: _358  and  _360
REMARK  159  A    between atoms: _360  and  _361
REMARK  160  A    between atoms: _360  and  _363
REMARK  161  A    between atoms: _363  and  _364
REMARK  162  A    between atoms: _366  and  _368
REMARK  163  A    between atoms: _368  and  _369
REMARK  164  A    between atoms: _368  and  _371
REMARK  165  A    between atoms: _371  and  _372
REMARK  166  A    between atoms: _378  and  _380
REMARK  167  A    between atoms: _380  and  _381
REMARK  168  A    between atoms: _380  and  _383
REMARK  169  A    between atoms: _383  and  _384
REMARK  170  A    between atoms: _389  and  _391
REMARK  171  A    between atoms: _391  and  _392
REMARK  172  A    between atoms: _391  and  _394
REMARK  173  A    between atoms: _394  and  _395
REMARK  174  A    between atoms: _400  and  _402
REMARK  175  A    between atoms: _402  and  _403
REMARK  176  A    between atoms: _402  and  _405
REMARK  177  A    between atoms: _405  and  _406
REMARK  178  A    between atoms: _411  and  _413
REMARK  179  A    between atoms: _413  and  _414
REMARK  180  A    between atoms: _413  and  _416
REMARK  181  A    between atoms: _416  and  _417
REMARK  182  A    between atoms: _420  and  _422
REMARK  183  A    between atoms: _422  and  _423
REMARK  184  A    between atoms: _425  and  _427
REMARK  185  A    between atoms: _427  and  _428
REMARK  186  A    between atoms: _431  and  _433
REMARK  187  A    between atoms: _433  and  _434
REMARK  188  A    between atoms: _433  and  _436
REMARK  189  A    between atoms: _436  and  _437
REMARK  190  A    between atoms: _443  and  _445
REMARK  191  A    between atoms: _445  and  _446
REMARK  192  A    between atoms: _445  and  _448
REMARK  193  A    between atoms: _448  and  _449
REMARK  194  A    between atoms: _451  and  _453
REMARK  195  A    between atoms: _453  and  _454
REMARK  196  A    between atoms: _456  and  _458
REMARK  197  A    between atoms: _458  and  _459
REMARK  198  A    between atoms: _458  and  _461
REMARK  199  A    between atoms: _461  and  _462
REMARK  200  A    between atoms: _465  and  _467
REMARK  201  A    between atoms: _467  and  _468
REMARK  202  A    between atoms: _467  and  _470
REMARK  203  A    between atoms: _470  and  _471
REMARK  204  A    between atoms: _474  and  _476
REMARK  205  A    between atoms: _476  and  _477
REMARK  206  A    between atoms: _480  and  _482
REMARK  207  A    between atoms: _482  and  _483
REMARK  208  A    between atoms: _486  and  _488
REMARK  209  A    between atoms: _488  and  _489
REMARK  210  A    between atoms: _491  and  _493
REMARK  211  A    between atoms: _493  and  _494
REMARK  212  A    between atoms: _493  and  _496
REMARK  213  A    between atoms: _496  and  _497
REMARK                            x       y       z     vdW  Elec       q    Type
REMARK                         _______ _______ _______ _____ _____    ______ ____
ROOT
ATOM      1  O   HOH     1      24.083  27.639   5.087  0.00  0.00    +0.000 OA
ENDROOT
TORSDOF 0
REMARK  Name = ../refined-set-2016/2ews/2ews_pocket.pdb
REMARK  213 active torsions:
REMARK  status: ('A' for Active; 'I' for Inactive)
REMARK    1  A    between atoms: _1  and  _3
REMARK    2  A    between atoms: _3  and  _4
REMARK    3  A    between atoms: _3  and  _6
REMARK    4  A    between atoms: _6  and  _7
REMARK    5  A    between atoms: _10  and  _12
REMARK    6  A    between atoms: _12  and  _13
REMARK    7  A    between atoms: _16  and  _18
REMARK    8  A    between atoms: _18  and  _19
REMARK    9  A    between atoms: _21  and  _23
REMARK   10  A    between atoms: _23  and  _24
REMARK   11  A    between atoms: _26  and  _28
REMARK   12  A    between atoms: _28  and  _29
REMARK   13  A    between atoms: _28  and  _31
REMARK   14  A    between atoms: _31  and  _32
REMARK   15  A    between atoms: _35  and  _37
REMARK   16  A    between atoms: _37  and  _38
REMARK   17  A    between atoms: _37  and  _40
REMARK   18  A    between atoms: _40  and  _41
REMARK   19  A    between atoms: _44  and  _46
REMARK   20  A    between atoms: _46  and  _47
REMARK   21  A    between atoms: _46  and  _49
REMARK   22  A    between atoms: _49  and  _50
REMARK   23  A    between atoms: _53  and  _55
REMARK   24  A    between atoms: _55  and  _56
REMARK   25  A    between atoms: _55  and  _58
REMARK   26  A    between atoms: _58  and  _59
REMARK   27  A    between atoms: _59  and  _60
REMARK   28  A    between atoms: _60  and  _61
REMARK   29  A    between atoms: _61  and  _62
REMARK   30  A    between atoms: _66  and  _68
REMARK   31  A    between atoms: _68  and  _69
REMARK   32  A    between atoms: _68  and  _71
REMARK   33  A    between atoms: _71  and  _72
REMARK   34  A    between atoms: _75  and  _77
REMARK   35  A    between atoms: _77  and  _78
REMARK   36  A    between atoms: _77  and  _80
REMARK   37  A    between atoms: _80  and  _81
REMARK   38  A    between atoms: _81  and  _82
REMARK   39  A    between atoms: _85  and  _87
REMARK   40  A    between atoms: _87  and  _88
REMARK   41  A    between atoms: _87  and  _90
REMARK   42  A    between atoms: _90  and  _91
REMARK   43  A    between atoms: _94  and  _96
REMARK   44  A    between atoms: _96  and  _97
REMARK   45  A    between atoms: _96  and  _99
REMARK   46  A    between atoms: _99  and  _100
REMARK   47  A    between atoms: _103  and  _105
REMARK   48  A    between atoms: _105  and  _106
REMARK   49  A    between atoms: _105  and  _108
REMARK   50  A    between atoms: _108  and  _109
REMARK   51  A    between atoms: _109  and  _110
REMARK   52  A    between atoms: _110  and  _111
REMARK   53  A    between atoms: _111  and  _112
REMARK   54  A    between atoms: _116  and  _118
REMARK   55  A    between atoms: _118  and  _119
REMARK   56  A    between atoms: _118  and  _121
REMARK   57  A    between atoms: _121  and  _122
REMARK   58  A    between atoms: _125  and  _127
REMARK   59  A    between atoms: _127  and  _128
REMARK   60  A    between atoms: _130  and  _132
REMARK   61  A    between atoms: _132  and  _133
REMARK   62  A    between atoms: _135  and  _137
REMARK   63  A    between atoms: _137  and  _138
REMARK   64  A    between atoms: _137  and  _140
REMARK   65  A    between atoms: _140  and  _141
REMARK   66  A    between atoms: _146  and  _148
REMARK   67  A    between atoms: _148  and  _149
REMARK   68  A    between atoms: _148  and  _151
REMARK   69  A    between atoms: _151  and  _152
REMARK   70  A    between atoms: _152  and  _153
REMARK   71  A    between atoms: _156  and  _158
REMARK   72  A    between atoms: _158  and  _159
REMARK   73  A    between atoms: _158  and  _161
REMARK   74  A    between atoms: _161  and  _162
REMARK   75  A    between atoms: _168  and  _170
REMARK   76  A    between atoms: _170  and  _171
REMARK   77  A    between atoms: _170  and  _173
REMARK   78  A    between atoms: _173  and  _174
REMARK   79  A    between atoms: _179  and  _181
REMARK   80  A    between atoms: _181  and  _182
REMARK   81  A    between atoms: _181  and  _184
REMARK   82  A    between atoms: _187  and  _189
REMARK   83  A    between atoms: _189  and  _190
REMARK   84  A    between atoms: _192  and  _194
REMARK   85  A    between atoms: _194  and  _195
REMARK   86  A    between atoms: _194  and  _197
REMARK   87  A    between atoms: _197  and  _198
REMARK   88  A    between atoms: _201  and  _203
REMARK   89  A    between atoms: _203  and  _204
REMARK   90  A    between atoms: _206  and  _208
REMARK   91  A    between atoms: _208  and  _209
REMARK   92  A    between atoms: _208  and  _211
REMARK   93  A    between atoms: _211  and  _212
REMARK   94  A    between atoms: _215  and  _217
REMARK   95  A    between atoms: _217  and  _218
REMARK   96  A    between atoms: _217  and  _220
REMARK   97  A    between atoms: _220  and  _221
REMARK   98  A    between atoms: _223  and  _225
REMARK   99  A    between atoms: _225  and  _226
REMARK  100  A    between atoms: _228  and  _230
REMARK  101  A    between atoms: _230  and  _231
REMARK  102  A    between atoms: _233  and  _235
REMARK  103  A    between atoms: _235  and  _236
REMARK  104  A    between atoms: _238  and  _240
REMARK  105  A    between atoms: _240  and  _241
REMARK  106  A    between atoms: _240  and  _243
REMARK  107  A    between atoms: _243  and  _244
REMARK  108  A    between atoms: _244  and  _245
REMARK  109  A    between atoms: _247  and  _249
REMARK  110  A    between atoms: _249  and  _250
REMARK  111  A    between atoms: _249  and  _252
REMARK  112  A    between atoms: _252  and  _253
REMARK  113  A    between atoms: _256  and  _258
REMARK  114  A    between atoms: _258  and  _259
REMARK  115  A    between atoms: _258  and  _261
REMARK  116  A    between atoms: _261  and  _262
REMARK  117  A    between atoms: _262  and  _263
REMARK  118  A    between atoms: _268  and  _270
REMARK  119  A    between atoms: _270  and  _271
REMARK  120  A    between atoms: _273  and  _275
REMARK  121  A    between atoms: _275  and  _276
REMARK  122  A    between atoms: _275  and  _278
REMARK  123  A    between atoms: _278  and  _279
REMARK  124  A    between atoms: _282  and  _284
REMARK  125  A    between atoms: _284  and  _285
REMARK  126  A    between atoms: _284  and  _287
REMARK  127  A    between atoms: _287  and  _288
REMARK  128  A    between atoms: _291  and  _293
REMARK  129  A    between atoms: _293  and  _294
REMARK  130  A    between atoms: _293  and  _296
REMARK  131  A    between atoms: _296  and  _297
REMARK  132  A    between atoms: _302  and  _303
REMARK  133  A    between atoms: _305  and  _307
REMARK  134  A    between atoms: _307  and  _308
REMARK  135  A    between atoms: _307  and  _310
REMARK  136  A    between atoms: _310  and  _311
REMARK  137  A    between atoms: _311  and  _312
REMARK  138  A    between atoms: _312  and  _313
REMARK  139  A    between atoms: _313  and  _314
REMARK  140  A    between atoms: _318  and  _320
REMARK  141  A    between atoms: _320  and  _321
REMARK  142  A    between atoms: _320  and  _323
REMARK  143  A    between atoms: _323  and  _324
REMARK  144  A    between atoms: _327  and  _329
REMARK  145  A    between atoms: _329  and  _330
REMARK  146  A    between atoms: _329  and  _332
REMARK  147  A    between atoms: _332  and  _333
REMARK  148  A    between atoms: _336  and  _338
REMARK  149  A    between atoms: _338  and  _339
REMARK  150  A    between atoms: _338  and  _341
REMARK  151  A    between atoms: _341  and  _342
REMARK  152  A    between atoms: _345  and  _347
REMARK  153  A    between atoms: _347  and  _348
REMARK  154  A    between atoms: _350  and  _352
REMARK  155  A    between atoms: _352  and  _353
REMARK  156  A    between atoms: _352  and  _355
REMARK  157  A    between atoms: _355  and  _356
REMARK  158  A    between atoms: _358  and  _360
REMARK  159  A    between atoms: _360  and  _361
REMARK  160  A    between atoms: _360  and  _363
REMARK  161  A    between atoms: _363  and  _364
REMARK  162  A    between atoms: _366  and  _368
REMARK  163  A    between atoms: _368  and  _369
REMARK  164  A    between atoms: _368  and  _371
REMARK  165  A    between atoms: _371  and  _372
REMARK  166  A    between atoms: _378  and  _380
REMARK  167  A    between atoms: _380  and  _381
REMARK  168  A    between atoms: _380  and  _383
REMARK  169  A    between atoms: _383  and  _384
REMARK  170  A    between atoms: _389  and  _391
REMARK  171  A    between atoms: _391  and  _392
REMARK  172  A    between atoms: _391  and  _394
REMARK  173  A    between atoms: _394  and  _395
REMARK  174  A    between atoms: _400  and  _402
REMARK  175  A    between atoms: _402  and  _403
REMARK  176  A    between atoms: _402  and  _405
REMARK  177  A    between atoms: _405  and  _406
REMARK  178  A    between atoms: _411  and  _413
REMARK  179  A    between atoms: _413  and  _414
REMARK  180  A    between atoms: _413  and  _416
REMARK  181  A    between atoms: _416  and  _417
REMARK  182  A    between atoms: _420  and  _422
REMARK  183  A    between atoms: _422  and  _423
REMARK  184  A    between atoms: _425  and  _427
REMARK  185  A    between atoms: _427  and  _428
REMARK  186  A    between atoms: _431  and  _433
REMARK  187  A    between atoms: _433  and  _434
REMARK  188  A    between atoms: _433  and  _436
REMARK  189  A    between atoms: _436  and  _437
REMARK  190  A    between atoms: _443  and  _445
REMARK  191  A    between atoms: _445  and  _446
REMARK  192  A    between atoms: _445  and  _448
REMARK  193  A    between atoms: _448  and  _449
REMARK  194  A    between atoms: _451  and  _453
REMARK  195  A    between atoms: _453  and  _454
REMARK  196  A    between atoms: _456  and  _458
REMARK  197  A    between atoms: _458  and  _459
REMARK  198  A    between atoms: _458  and  _461
REMARK  199  A    between atoms: _461  and  _462
REMARK  200  A    between atoms: _465  and  _467
REMARK  201  A    between atoms: _467  and  _468
REMARK  202  A    between atoms: _467  and  _470
REMARK  203  A    between atoms: _470  and  _471
REMARK  204  A    between atoms: _474  and  _476
REMARK  205  A    between atoms: _476  and  _477
REMARK  206  A    between atoms: _480  and  _482
REMARK  207  A    between atoms: _482  and  _483
REMARK  208  A    between atoms: _486  and  _488
REMARK  209  A    between atoms: _488  and  _489
REMARK  210  A    between atoms: _491  and  _493
REMARK  211  A    between atoms: _493  and  _494
REMARK  212  A    between atoms: _493  and  _496
REMARK  213  A    between atoms: _496  and  _497
REMARK                            x       y       z     vdW  Elec       q    Type
REMARK                         _______ _______ _______ _____ _____    ______ ____
ROOT
ATOM      1  O   HOH     1       4.827  31.040  -2.683  0.00  0.00    +0.000 OA
ENDROOT
TORSDOF 0
REMARK  Name = ../refined-set-2016/2ews/2ews_pocket.pdb
REMARK  213 active torsions:
REMARK  status: ('A' for Active; 'I' for Inactive)
REMARK    1  A    between atoms: _1  and  _3
REMARK    2  A    between atoms: _3  and  _4
REMARK    3  A    between atoms: _3  and  _6
REMARK    4  A    between atoms: _6  and  _7
REMARK    5  A    between atoms: _10  and  _12
REMARK    6  A    between atoms: _12  and  _13
REMARK    7  A    between atoms: _16  and  _18
REMARK    8  A    between atoms: _18  and  _19
REMARK    9  A    between atoms: _21  and  _23
REMARK   10  A    between atoms: _23  and  _24
REMARK   11  A    between atoms: _26  and  _28
REMARK   12  A    between atoms: _28  and  _29
REMARK   13  A    between atoms: _28  and  _31
REMARK   14  A    between atoms: _31  and  _32
REMARK   15  A    between atoms: _35  and  _37
REMARK   16  A    between atoms: _37  and  _38
REMARK   17  A    between atoms: _37  and  _40
REMARK   18  A    between atoms: _40  and  _41
REMARK   19  A    between atoms: _44  and  _46
REMARK   20  A    between atoms: _46  and  _47
REMARK   21  A    between atoms: _46  and  _49
REMARK   22  A    between atoms: _49  and  _50
REMARK   23  A    between atoms: _53  and  _55
REMARK   24  A    between atoms: _55  and  _56
REMARK   25  A    between atoms: _55  and  _58
REMARK   26  A    between atoms: _58  and  _59
REMARK   27  A    between atoms: _59  and  _60
REMARK   28  A    between atoms: _60  and  _61
REMARK   29  A    between atoms: _61  and  _62
REMARK   30  A    between atoms: _66  and  _68
REMARK   31  A    between atoms: _68  and  _69
REMARK   32  A    between atoms: _68  and  _71
REMARK   33  A    between atoms: _71  and  _72
REMARK   34  A    between atoms: _75  and  _77
REMARK   35  A    between atoms: _77  and  _78
REMARK   36  A    between atoms: _77  and  _80
REMARK   37  A    between atoms: _80  and  _81
REMARK   38  A    between atoms: _81  and  _82
REMARK   39  A    between atoms: _85  and  _87
REMARK   40  A    between atoms: _87  and  _88
REMARK   41  A    between atoms: _87  and  _90
REMARK   42  A    between atoms: _90  and  _91
REMARK   43  A    between atoms: _94  and  _96
REMARK   44  A    between atoms: _96  and  _97
REMARK   45  A    between atoms: _96  and  _99
REMARK   46  A    between atoms: _99  and  _100
REMARK   47  A    between atoms: _103  and  _105
REMARK   48  A    between atoms: _105  and  _106
REMARK   49  A    between atoms: _105  and  _108
REMARK   50  A    between atoms: _108  and  _109
REMARK   51  A    between atoms: _109  and  _110
REMARK   52  A    between atoms: _110  and  _111
REMARK   53  A    between atoms: _111  and  _112
REMARK   54  A    between atoms: _116  and  _118
REMARK   55  A    between atoms: _118  and  _119
REMARK   56  A    between atoms: _118  and  _121
REMARK   57  A    between atoms: _121  and  _122
REMARK   58  A    between atoms: _125  and  _127
REMARK   59  A    between atoms: _127  and  _128
REMARK   60  A    between atoms: _130  and  _132
REMARK   61  A    between atoms: _132  and  _133
REMARK   62  A    between atoms: _135  and  _137
REMARK   63  A    between atoms: _137  and  _138
REMARK   64  A    between atoms: _137  and  _140
REMARK   65  A    between atoms: _140  and  _141
REMARK   66  A    between atoms: _146  and  _148
REMARK   67  A    between atoms: _148  and  _149
REMARK   68  A    between atoms: _148  and  _151
REMARK   69  A    between atoms: _151  and  _152
REMARK   70  A    between atoms: _152  and  _153
REMARK   71  A    between atoms: _156  and  _158
REMARK   72  A    between atoms: _158  and  _159
REMARK   73  A    between atoms: _158  and  _161
REMARK   74  A    between atoms: _161  and  _162
REMARK   75  A    between atoms: _168  and  _170
REMARK   76  A    between atoms: _170  and  _171
REMARK   77  A    between atoms: _170  and  _173
REMARK   78  A    between atoms: _173  and  _174
REMARK   79  A    between atoms: _179  and  _181
REMARK   80  A    between atoms: _181  and  _182
REMARK   81  A    between atoms: _181  and  _184
REMARK   82  A    between atoms: _187  and  _189
REMARK   83  A    between atoms: _189  and  _190
REMARK   84  A    between atoms: _192  and  _194
REMARK   85  A    between atoms: _194  and  _195
REMARK   86  A    between atoms: _194  and  _197
REMARK   87  A    between atoms: _197  and  _198
REMARK   88  A    between atoms: _201  and  _203
REMARK   89  A    between atoms: _203  and  _204
REMARK   90  A    between atoms: _206  and  _208
REMARK   91  A    between atoms: _208  and  _209
REMARK   92  A    between atoms: _208  and  _211
REMARK   93  A    between atoms: _211  and  _212
REMARK   94  A    between atoms: _215  and  _217
REMARK   95  A    between atoms: _217  and  _218
REMARK   96  A    between atoms: _217  and  _220
REMARK   97  A    between atoms: _220  and  _221
REMARK   98  A    between atoms: _223  and  _225
REMARK   99  A    between atoms: _225  and  _226
REMARK  100  A    between atoms: _228  and  _230
REMARK  101  A    between atoms: _230  and  _231
REMARK  102  A    between atoms: _233  and  _235
REMARK  103  A    between atoms: _235  and  _236
REMARK  104  A    between atoms: _238  and  _240
REMARK  105  A    between atoms: _240  and  _241
REMARK  106  A    between atoms: _240  and  _243
REMARK  107  A    between atoms: _243  and  _244
REMARK  108  A    between atoms: _244  and  _245
REMARK  109  A    between atoms: _247  and  _249
REMARK  110  A    between atoms: _249  and  _250
REMARK  111  A    between atoms: _249  and  _252
REMARK  112  A    between atoms: _252  and  _253
REMARK  113  A    between atoms: _256  and  _258
REMARK  114  A    between atoms: _258  and  _259
REMARK  115  A    between atoms: _258  and  _261
REMARK  116  A    between atoms: _261  and  _262
REMARK  117  A    between atoms: _262  and  _263
REMARK  118  A    between atoms: _268  and  _270
REMARK  119  A    between atoms: _270  and  _271
REMARK  120  A    between atoms: _273  and  _275
REMARK  121  A    between atoms: _275  and  _276
REMARK  122  A    between atoms: _275  and  _278
REMARK  123  A    between atoms: _278  and  _279
REMARK  124  A    between atoms: _282  and  _284
REMARK  125  A    between atoms: _284  and  _285
REMARK  126  A    between atoms: _284  and  _287
REMARK  127  A    between atoms: _287  and  _288
REMARK  128  A    between atoms: _291  and  _293
REMARK  129  A    between atoms: _293  and  _294
REMARK  130  A    between atoms: _293  and  _296
REMARK  131  A    between atoms: _296  and  _297
REMARK  132  A    between atoms: _302  and  _303
REMARK  133  A    between atoms: _305  and  _307
REMARK  134  A    between atoms: _307  and  _308
REMARK  135  A    between atoms: _307  and  _310
REMARK  136  A    between atoms: _310  and  _311
REMARK  137  A    between atoms: _311  and  _312
REMARK  138  A    between atoms: _312  and  _313
REMARK  139  A    between atoms: _313  and  _314
REMARK  140  A    between atoms: _318  and  _320
REMARK  141  A    between atoms: _320  and  _321
REMARK  142  A    between atoms: _320  and  _323
REMARK  143  A    between atoms: _323  and  _324
REMARK  144  A    between atoms: _327  and  _329
REMARK  145  A    between atoms: _329  and  _330
REMARK  146  A    between atoms: _329  and  _332
REMARK  147  A    between atoms: _332  and  _333
REMARK  148  A    between atoms: _336  and  _338
REMARK  149  A    between atoms: _338  and  _339
REMARK  150  A    between atoms: _338  and  _341
REMARK  151  A    between atoms: _341  and  _342
REMARK  152  A    between atoms: _345  and  _347
REMARK  153  A    between atoms: _347  and  _348
REMARK  154  A    between atoms: _350  and  _352
REMARK  155  A    between atoms: _352  and  _353
REMARK  156  A    between atoms: _352  and  _355
REMARK  157  A    between atoms: _355  and  _356
REMARK  158  A    between atoms: _358  and  _360
REMARK  159  A    between atoms: _360  and  _361
REMARK  160  A    between atoms: _360  and  _363
REMARK  161  A    between atoms: _363  and  _364
REMARK  162  A    between atoms: _366  and  _368
REMARK  163  A    between atoms: _368  and  _369
REMARK  164  A    between atoms: _368  and  _371
REMARK  165  A    between atoms: _371  and  _372
REMARK  166  A    between atoms: _378  and  _380
REMARK  167  A    between atoms: _380  and  _381
REMARK  168  A    between atoms: _380  and  _383
REMARK  169  A    between atoms: _383  and  _384
REMARK  170  A    between atoms: _389  and  _391
REMARK  171  A    between atoms: _391  and  _392
REMARK  172  A    between atoms: _391  and  _394
REMARK  173  A    between atoms: _394  and  _395
REMARK  174  A    between atoms: _400  and  _402
REMARK  175  A    between atoms: _402  and  _403
REMARK  176  A    between atoms: _402  and  _405
REMARK  177  A    between atoms: _405  and  _406
REMARK  178  A    between atoms: _411  and  _413
REMARK  179  A    between atoms: _413  and  _414
REMARK  180  A    between atoms: _413  and  _416
REMARK  181  A    between atoms: _416  and  _417
REMARK  182  A    between atoms: _420  and  _422
REMARK  183  A    between atoms: _422  and  _423
REMARK  184  A    between atoms: _425  and  _427
REMARK  185  A    between atoms: _427  and  _428
REMARK  186  A    between atoms: _431  and  _433
REMARK  187  A    between atoms: _433  and  _434
REMARK  188  A    between atoms: _433  and  _436
REMARK  189  A    between atoms: _436  and  _437
REMARK  190  A    between atoms: _443  and  _445
REMARK  191  A    between atoms: _445  and  _446
REMARK  192  A    between atoms: _445  and  _448
REMARK  193  A    between atoms: _448  and  _449
REMARK  194  A    between atoms: _451  and  _453
REMARK  195  A    between atoms: _453  and  _454
REMARK  196  A    between atoms: _456  and  _458
REMARK  197  A    between atoms: _458  and  _459
REMARK  198  A    between atoms: _458  and  _461
REMARK  199  A    between atoms: _461  and  _462
REMARK  200  A    between atoms: _465  and  _467
REMARK  201  A    between atoms: _467  and  _468
REMARK  202  A    between atoms: _467  and  _470
REMARK  203  A    between atoms: _470  and  _471
REMARK  204  A    between atoms: _474  and  _476
REMARK  205  A    between atoms: _476  and  _477
REMARK  206  A    between atoms: _480  and  _482
REMARK  207  A    between atoms: _482  and  _483
REMARK  208  A    between atoms: _486  and  _488
REMARK  209  A    between atoms: _488  and  _489
REMARK  210  A    between atoms: _491  and  _493
REMARK  211  A    between atoms: _493  and  _494
REMARK  212  A    between atoms: _493  and  _496
REMARK  213  A    between atoms: _496  and  _497
REMARK                            x       y       z     vdW  Elec       q    Type
REMARK                         _______ _______ _______ _____ _____    ______ ____
ROOT
ATOM      1  O   HOH     1      11.656  27.823 -15.408  0.00  0.00    +0.000 OA
ENDROOT
TORSDOF 0
REMARK  Name = ../refined-set-2016/2ews/2ews_pocket.pdb
REMARK  213 active torsions:
REMARK  status: ('A' for Active; 'I' for Inactive)
REMARK    1  A    between atoms: _1  and  _3
REMARK    2  A    between atoms: _3  and  _4
REMARK    3  A    between atoms: _3  and  _6
REMARK    4  A    between atoms: _6  and  _7
REMARK    5  A    between atoms: _10  and  _12
REMARK    6  A    between atoms: _12  and  _13
REMARK    7  A    between atoms: _16  and  _18
REMARK    8  A    between atoms: _18  and  _19
REMARK    9  A    between atoms: _21  and  _23
REMARK   10  A    between atoms: _23  and  _24
REMARK   11  A    between atoms: _26  and  _28
REMARK   12  A    between atoms: _28  and  _29
REMARK   13  A    between atoms: _28  and  _31
REMARK   14  A    between atoms: _31  and  _32
REMARK   15  A    between atoms: _35  and  _37
REMARK   16  A    between atoms: _37  and  _38
REMARK   17  A    between atoms: _37  and  _40
REMARK   18  A    between atoms: _40  and  _41
REMARK   19  A    between atoms: _44  and  _46
REMARK   20  A    between atoms: _46  and  _47
REMARK   21  A    between atoms: _46  and  _49
REMARK   22  A    between atoms: _49  and  _50
REMARK   23  A    between atoms: _53  and  _55
REMARK   24  A    between atoms: _55  and  _56
REMARK   25  A    between atoms: _55  and  _58
REMARK   26  A    between atoms: _58  and  _59
REMARK   27  A    between atoms: _59  and  _60
REMARK   28  A    between atoms: _60  and  _61
REMARK   29  A    between atoms: _61  and  _62
REMARK   30  A    between atoms: _66  and  _68
REMARK   31  A    between atoms: _68  and  _69
REMARK   32  A    between atoms: _68  and  _71
REMARK   33  A    between atoms: _71  and  _72
REMARK   34  A    between atoms: _75  and  _77
REMARK   35  A    between atoms: _77  and  _78
REMARK   36  A    between atoms: _77  and  _80
REMARK   37  A    between atoms: _80  and  _81
REMARK   38  A    between atoms: _81  and  _82
REMARK   39  A    between atoms: _85  and  _87
REMARK   40  A    between atoms: _87  and  _88
REMARK   41  A    between atoms: _87  and  _90
REMARK   42  A    between atoms: _90  and  _91
REMARK   43  A    between atoms: _94  and  _96
REMARK   44  A    between atoms: _96  and  _97
REMARK   45  A    between atoms: _96  and  _99
REMARK   46  A    between atoms: _99  and  _100
REMARK   47  A    between atoms: _103  and  _105
REMARK   48  A    between atoms: _105  and  _106
REMARK   49  A    between atoms: _105  and  _108
REMARK   50  A    between atoms: _108  and  _109
REMARK   51  A    between atoms: _109  and  _110
REMARK   52  A    between atoms: _110  and  _111
REMARK   53  A    between atoms: _111  and  _112
REMARK   54  A    between atoms: _116  and  _118
REMARK   55  A    between atoms: _118  and  _119
REMARK   56  A    between atoms: _118  and  _121
REMARK   57  A    between atoms: _121  and  _122
REMARK   58  A    between atoms: _125  and  _127
REMARK   59  A    between atoms: _127  and  _128
REMARK   60  A    between atoms: _130  and  _132
REMARK   61  A    between atoms: _132  and  _133
REMARK   62  A    between atoms: _135  and  _137
REMARK   63  A    between atoms: _137  and  _138
REMARK   64  A    between atoms: _137  and  _140
REMARK   65  A    between atoms: _140  and  _141
REMARK   66  A    between atoms: _146  and  _148
REMARK   67  A    between atoms: _148  and  _149
REMARK   68  A    between atoms: _148  and  _151
REMARK   69  A    between atoms: _151  and  _152
REMARK   70  A    between atoms: _152  and  _153
REMARK   71  A    between atoms: _156  and  _158
REMARK   72  A    between atoms: _158  and  _159
REMARK   73  A    between atoms: _158  and  _161
REMARK   74  A    between atoms: _161  and  _162
REMARK   75  A    between atoms: _168  and  _170
REMARK   76  A    between atoms: _170  and  _171
REMARK   77  A    between atoms: _170  and  _173
REMARK   78  A    between atoms: _173  and  _174
REMARK   79  A    between atoms: _179  and  _181
REMARK   80  A    between atoms: _181  and  _182
REMARK   81  A    between atoms: _181  and  _184
REMARK   82  A    between atoms: _187  and  _189
REMARK   83  A    between atoms: _189  and  _190
REMARK   84  A    between atoms: _192  and  _194
REMARK   85  A    between atoms: _194  and  _195
REMARK   86  A    between atoms: _194  and  _197
REMARK   87  A    between atoms: _197  and  _198
REMARK   88  A    between atoms: _201  and  _203
REMARK   89  A    between atoms: _203  and  _204
REMARK   90  A    between atoms: _206  and  _208
REMARK   91  A    between atoms: _208  and  _209
REMARK   92  A    between atoms: _208  and  _211
REMARK   93  A    between atoms: _211  and  _212
REMARK   94  A    between atoms: _215  and  _217
REMARK   95  A    between atoms: _217  and  _218
REMARK   96  A    between atoms: _217  and  _220
REMARK   97  A    between atoms: _220  and  _221
REMARK   98  A    between atoms: _223  and  _225
REMARK   99  A    between atoms: _225  and  _226
REMARK  100  A    between atoms: _228  and  _230
REMARK  101  A    between atoms: _230  and  _231
REMARK  102  A    between atoms: _233  and  _235
REMARK  103  A    between atoms: _235  and  _236
REMARK  104  A    between atoms: _238  and  _240
REMARK  105  A    between atoms: _240  and  _241
REMARK  106  A    between atoms: _240  and  _243
REMARK  107  A    between atoms: _243  and  _244
REMARK  108  A    between atoms: _244  and  _245
REMARK  109  A    between atoms: _247  and  _249
REMARK  110  A    between atoms: _249  and  _250
REMARK  111  A    between atoms: _249  and  _252
REMARK  112  A    between atoms: _252  and  _253
REMARK  113  A    between atoms: _256  and  _258
REMARK  114  A    between atoms: _258  and  _259
REMARK  115  A    between atoms: _258  and  _261
REMARK  116  A    between atoms: _261  and  _262
REMARK  117  A    between atoms: _262  and  _263
REMARK  118  A    between atoms: _268  and  _270
REMARK  119  A    between atoms: _270  and  _271
REMARK  120  A    between atoms: _273  and  _275
REMARK  121  A    between atoms: _275  and  _276
REMARK  122  A    between atoms: _275  and  _278
REMARK  123  A    between atoms: _278  and  _279
REMARK  124  A    between atoms: _282  and  _284
REMARK  125  A    between atoms: _284  and  _285
REMARK  126  A    between atoms: _284  and  _287
REMARK  127  A    between atoms: _287  and  _288
REMARK  128  A    between atoms: _291  and  _293
REMARK  129  A    between atoms: _293  and  _294
REMARK  130  A    between atoms: _293  and  _296
REMARK  131  A    between atoms: _296  and  _297
REMARK  132  A    between atoms: _302  and  _303
REMARK  133  A    between atoms: _305  and  _307
REMARK  134  A    between atoms: _307  and  _308
REMARK  135  A    between atoms: _307  and  _310
REMARK  136  A    between atoms: _310  and  _311
REMARK  137  A    between atoms: _311  and  _312
REMARK  138  A    between atoms: _312  and  _313
REMARK  139  A    between atoms: _313  and  _314
REMARK  140  A    between atoms: _318  and  _320
REMARK  141  A    between atoms: _320  and  _321
REMARK  142  A    between atoms: _320  and  _323
REMARK  143  A    between atoms: _323  and  _324
REMARK  144  A    between atoms: _327  and  _329
REMARK  145  A    between atoms: _329  and  _330
REMARK  146  A    between atoms: _329  and  _332
REMARK  147  A    between atoms: _332  and  _333
REMARK  148  A    between atoms: _336  and  _338
REMARK  149  A    between atoms: _338  and  _339
REMARK  150  A    between atoms: _338  and  _341
REMARK  151  A    between atoms: _341  and  _342
REMARK  152  A    between atoms: _345  and  _347
REMARK  153  A    between atoms: _347  and  _348
REMARK  154  A    between atoms: _350  and  _352
REMARK  155  A    between atoms: _352  and  _353
REMARK  156  A    between atoms: _352  and  _355
REMARK  157  A    between atoms: _355  and  _356
REMARK  158  A    between atoms: _358  and  _360
REMARK  159  A    between atoms: _360  and  _361
REMARK  160  A    between atoms: _360  and  _363
REMARK  161  A    between atoms: _363  and  _364
REMARK  162  A    between atoms: _366  and  _368
REMARK  163  A    between atoms: _368  and  _369
REMARK  164  A    between atoms: _368  and  _371
REMARK  165  A    between atoms: _371  and  _372
REMARK  166  A    between atoms: _378  and  _380
REMARK  167  A    between atoms: _380  and  _381
REMARK  168  A    between atoms: _380  and  _383
REMARK  169  A    between atoms: _383  and  _384
REMARK  170  A    between atoms: _389  and  _391
REMARK  171  A    between atoms: _391  and  _392
REMARK  172  A    between atoms: _391  and  _394
REMARK  173  A    between atoms: _394  and  _395
REMARK  174  A    between atoms: _400  and  _402
REMARK  175  A    between atoms: _402  and  _403
REMARK  176  A    between atoms: _402  and  _405
REMARK  177  A    between atoms: _405  and  _406
REMARK  178  A    between atoms: _411  and  _413
REMARK  179  A    between atoms: _413  and  _414
REMARK  180  A    between atoms: _413  and  _416
REMARK  181  A    between atoms: _416  and  _417
REMARK  182  A    between atoms: _420  and  _422
REMARK  183  A    between atoms: _422  and  _423
REMARK  184  A    between atoms: _425  and  _427
REMARK  185  A    between atoms: _427  and  _428
REMARK  186  A    between atoms: _431  and  _433
REMARK  187  A    between atoms: _433  and  _434
REMARK  188  A    between atoms: _433  and  _436
REMARK  189  A    between atoms: _436  and  _437
REMARK  190  A    between atoms: _443  and  _445
REMARK  191  A    between atoms: _445  and  _446
REMARK  192  A    between atoms: _445  and  _448
REMARK  193  A    between atoms: _448  and  _449
REMARK  194  A    between atoms: _451  and  _453
REMARK  195  A    between atoms: _453  and  _454
REMARK  196  A    between atoms: _456  and  _458
REMARK  197  A    between atoms: _458  and  _459
REMARK  198  A    between atoms: _458  and  _461
REMARK  199  A    between atoms: _461  and  _462
REMARK  200  A    between atoms: _465  and  _467
REMARK  201  A    between atoms: _467  and  _468
REMARK  202  A    between atoms: _467  and  _470
REMARK  203  A    between atoms: _470  and  _471
REMARK  204  A    between atoms: _474  and  _476
REMARK  205  A    between atoms: _476  and  _477
REMARK  206  A    between atoms: _480  and  _482
REMARK  207  A    between atoms: _482  and  _483
REMARK  208  A    between atoms: _486  and  _488
REMARK  209  A    between atoms: _488  and  _489
REMARK  210  A    between atoms: _491  and  _493
REMARK  211  A    between atoms: _493  and  _494
REMARK  212  A    between atoms: _493  and  _496
REMARK  213  A    between atoms: _496  and  _497
REMARK                            x       y       z     vdW  Elec       q    Type
REMARK                         _______ _______ _______ _____ _____    ______ ____
ROOT
ATOM      1  O   HOH     1      19.195  19.347   5.996  0.00  0.00    +0.000 OA
ENDROOT
TORSDOF 0
REMARK  Name = ../refined-set-2016/2ews/2ews_pocket.pdb
REMARK  213 active torsions:
REMARK  status: ('A' for Active; 'I' for Inactive)
REMARK    1  A    between atoms: _1  and  _3
REMARK    2  A    between atoms: _3  and  _4
REMARK    3  A    between atoms: _3  and  _6
REMARK    4  A    between atoms: _6  and  _7
REMARK    5  A    between atoms: _10  and  _12
REMARK    6  A    between atoms: _12  and  _13
REMARK    7  A    between atoms: _16  and  _18
REMARK    8  A    between atoms: _18  and  _19
REMARK    9  A    between atoms: _21  and  _23
REMARK   10  A    between atoms: _23  and  _24
REMARK   11  A    between atoms: _26  and  _28
REMARK   12  A    between atoms: _28  and  _29
REMARK   13  A    between atoms: _28  and  _31
REMARK   14  A    between atoms: _31  and  _32
REMARK   15  A    between atoms: _35  and  _37
REMARK   16  A    between atoms: _37  and  _38
REMARK   17  A    between atoms: _37  and  _40
REMARK   18  A    between atoms: _40  and  _41
REMARK   19  A    between atoms: _44  and  _46
REMARK   20  A    between atoms: _46  and  _47
REMARK   21  A    between atoms: _46  and  _49
REMARK   22  A    between atoms: _49  and  _50
REMARK   23  A    between atoms: _53  and  _55
REMARK   24  A    between atoms: _55  and  _56
REMARK   25  A    between atoms: _55  and  _58
REMARK   26  A    between atoms: _58  and  _59
REMARK   27  A    between atoms: _59  and  _60
REMARK   28  A    between atoms: _60  and  _61
REMARK   29  A    between atoms: _61  and  _62
REMARK   30  A    between atoms: _66  and  _68
REMARK   31  A    between atoms: _68  and  _69
REMARK   32  A    between atoms: _68  and  _71
REMARK   33  A    between atoms: _71  and  _72
REMARK   34  A    between atoms: _75  and  _77
REMARK   35  A    between atoms: _77  and  _78
REMARK   36  A    between atoms: _77  and  _80
REMARK   37  A    between atoms: _80  and  _81
REMARK   38  A    between atoms: _81  and  _82
REMARK   39  A    between atoms: _85  and  _87
REMARK   40  A    between atoms: _87  and  _88
REMARK   41  A    between atoms: _87  and  _90
REMARK   42  A    between atoms: _90  and  _91
REMARK   43  A    between atoms: _94  and  _96
REMARK   44  A    between atoms: _96  and  _97
REMARK   45  A    between atoms: _96  and  _99
REMARK   46  A    between atoms: _99  and  _100
REMARK   47  A    between atoms: _103  and  _105
REMARK   48  A    between atoms: _105  and  _106
REMARK   49  A    between atoms: _105  and  _108
REMARK   50  A    between atoms: _108  and  _109
REMARK   51  A    between atoms: _109  and  _110
REMARK   52  A    between atoms: _110  and  _111
REMARK   53  A    between atoms: _111  and  _112
REMARK   54  A    between atoms: _116  and  _118
REMARK   55  A    between atoms: _118  and  _119
REMARK   56  A    between atoms: _118  and  _121
REMARK   57  A    between atoms: _121  and  _122
REMARK   58  A    between atoms: _125  and  _127
REMARK   59  A    between atoms: _127  and  _128
REMARK   60  A    between atoms: _130  and  _132
REMARK   61  A    between atoms: _132  and  _133
REMARK   62  A    between atoms: _135  and  _137
REMARK   63  A    between atoms: _137  and  _138
REMARK   64  A    between atoms: _137  and  _140
REMARK   65  A    between atoms: _140  and  _141
REMARK   66  A    between atoms: _146  and  _148
REMARK   67  A    between atoms: _148  and  _149
REMARK   68  A    between atoms: _148  and  _151
REMARK   69  A    between atoms: _151  and  _152
REMARK   70  A    between atoms: _152  and  _153
REMARK   71  A    between atoms: _156  and  _158
REMARK   72  A    between atoms: _158  and  _159
REMARK   73  A    between atoms: _158  and  _161
REMARK   74  A    between atoms: _161  and  _162
REMARK   75  A    between atoms: _168  and  _170
REMARK   76  A    between atoms: _170  and  _171
REMARK   77  A    between atoms: _170  and  _173
REMARK   78  A    between atoms: _173  and  _174
REMARK   79  A    between atoms: _179  and  _181
REMARK   80  A    between atoms: _181  and  _182
REMARK   81  A    between atoms: _181  and  _184
REMARK   82  A    between atoms: _187  and  _189
REMARK   83  A    between atoms: _189  and  _190
REMARK   84  A    between atoms: _192  and  _194
REMARK   85  A    between atoms: _194  and  _195
REMARK   86  A    between atoms: _194  and  _197
REMARK   87  A    between atoms: _197  and  _198
REMARK   88  A    between atoms: _201  and  _203
REMARK   89  A    between atoms: _203  and  _204
REMARK   90  A    between atoms: _206  and  _208
REMARK   91  A    between atoms: _208  and  _209
REMARK   92  A    between atoms: _208  and  _211
REMARK   93  A    between atoms: _211  and  _212
REMARK   94  A    between atoms: _215  and  _217
REMARK   95  A    between atoms: _217  and  _218
REMARK   96  A    between atoms: _217  and  _220
REMARK   97  A    between atoms: _220  and  _221
REMARK   98  A    between atoms: _223  and  _225
REMARK   99  A    between atoms: _225  and  _226
REMARK  100  A    between atoms: _228  and  _230
REMARK  101  A    between atoms: _230  and  _231
REMARK  102  A    between atoms: _233  and  _235
REMARK  103  A    between atoms: _235  and  _236
REMARK  104  A    between atoms: _238  and  _240
REMARK  105  A    between atoms: _240  and  _241
REMARK  106  A    between atoms: _240  and  _243
REMARK  107  A    between atoms: _243  and  _244
REMARK  108  A    between atoms: _244  and  _245
REMARK  109  A    between atoms: _247  and  _249
REMARK  110  A    between atoms: _249  and  _250
REMARK  111  A    between atoms: _249  and  _252
REMARK  112  A    between atoms: _252  and  _253
REMARK  113  A    between atoms: _256  and  _258
REMARK  114  A    between atoms: _258  and  _259
REMARK  115  A    between atoms: _258  and  _261
REMARK  116  A    between atoms: _261  and  _262
REMARK  117  A    between atoms: _262  and  _263
REMARK  118  A    between atoms: _268  and  _270
REMARK  119  A    between atoms: _270  and  _271
REMARK  120  A    between atoms: _273  and  _275
REMARK  121  A    between atoms: _275  and  _276
REMARK  122  A    between atoms: _275  and  _278
REMARK  123  A    between atoms: _278  and  _279
REMARK  124  A    between atoms: _282  and  _284
REMARK  125  A    between atoms: _284  and  _285
REMARK  126  A    between atoms: _284  and  _287
REMARK  127  A    between atoms: _287  and  _288
REMARK  128  A    between atoms: _291  and  _293
REMARK  129  A    between atoms: _293  and  _294
REMARK  130  A    between atoms: _293  and  _296
REMARK  131  A    between atoms: _296  and  _297
REMARK  132  A    between atoms: _302  and  _303
REMARK  133  A    between atoms: _305  and  _307
REMARK  134  A    between atoms: _307  and  _308
REMARK  135  A    between atoms: _307  and  _310
REMARK  136  A    between atoms: _310  and  _311
REMARK  137  A    between atoms: _311  and  _312
REMARK  138  A    between atoms: _312  and  _313
REMARK  139  A    between atoms: _313  and  _314
REMARK  140  A    between atoms: _318  and  _320
REMARK  141  A    between atoms: _320  and  _321
REMARK  142  A    between atoms: _320  and  _323
REMARK  143  A    between atoms: _323  and  _324
REMARK  144  A    between atoms: _327  and  _329
REMARK  145  A    between atoms: _329  and  _330
REMARK  146  A    between atoms: _329  and  _332
REMARK  147  A    between atoms: _332  and  _333
REMARK  148  A    between atoms: _336  and  _338
REMARK  149  A    between atoms: _338  and  _339
REMARK  150  A    between atoms: _338  and  _341
REMARK  151  A    between atoms: _341  and  _342
REMARK  152  A    between atoms: _345  and  _347
REMARK  153  A    between atoms: _347  and  _348
REMARK  154  A    between atoms: _350  and  _352
REMARK  155  A    between atoms: _352  and  _353
REMARK  156  A    between atoms: _352  and  _355
REMARK  157  A    between atoms: _355  and  _356
REMARK  158  A    between atoms: _358  and  _360
REMARK  159  A    between atoms: _360  and  _361
REMARK  160  A    between atoms: _360  and  _363
REMARK  161  A    between atoms: _363  and  _364
REMARK  162  A    between atoms: _366  and  _368
REMARK  163  A    between atoms: _368  and  _369
REMARK  164  A    between atoms: _368  and  _371
REMARK  165  A    between atoms: _371  and  _372
REMARK  166  A    between atoms: _378  and  _380
REMARK  167  A    between atoms: _380  and  _381
REMARK  168  A    between atoms: _380  and  _383
REMARK  169  A    between atoms: _383  and  _384
REMARK  170  A    between atoms: _389  and  _391
REMARK  171  A    between atoms: _391  and  _392
REMARK  172  A    between atoms: _391  and  _394
REMARK  173  A    between atoms: _394  and  _395
REMARK  174  A    between atoms: _400  and  _402
REMARK  175  A    between atoms: _402  and  _403
REMARK  176  A    between atoms: _402  and  _405
REMARK  177  A    between atoms: _405  and  _406
REMARK  178  A    between atoms: _411  and  _413
REMARK  179  A    between atoms: _413  and  _414
REMARK  180  A    between atoms: _413  and  _416
REMARK  181  A    between atoms: _416  and  _417
REMARK  182  A    between atoms: _420  and  _422
REMARK  183  A    between atoms: _422  and  _423
REMARK  184  A    between atoms: _425  and  _427
REMARK  185  A    between atoms: _427  and  _428
REMARK  186  A    between atoms: _431  and  _433
REMARK  187  A    between atoms: _433  and  _434
REMARK  188  A    between atoms: _433  and  _436
REMARK  189  A    between atoms: _436  and  _437
REMARK  190  A    between atoms: _443  and  _445
REMARK  191  A    between atoms: _445  and  _446
REMARK  192  A    between atoms: _445  and  _448
REMARK  193  A    between atoms: _448  and  _449
REMARK  194  A    between atoms: _451  and  _453
REMARK  195  A    between atoms: _453  and  _454
REMARK  196  A    between atoms: _456  and  _458
REMARK  197  A    between atoms: _458  and  _459
REMARK  198  A    between atoms: _458  and  _461
REMARK  199  A    between atoms: _461  and  _462
REMARK  200  A    between atoms: _465  and  _467
REMARK  201  A    between atoms: _467  and  _468
REMARK  202  A    between atoms: _467  and  _470
REMARK  203  A    between atoms: _470  and  _471
REMARK  204  A    between atoms: _474  and  _476
REMARK  205  A    between atoms: _476  and  _477
REMARK  206  A    between atoms: _480  and  _482
REMARK  207  A    between atoms: _482  and  _483
REMARK  208  A    between atoms: _486  and  _488
REMARK  209  A    between atoms: _488  and  _489
REMARK  210  A    between atoms: _491  and  _493
REMARK  211  A    between atoms: _493  and  _494
REMARK  212  A    between atoms: _493  and  _496
REMARK  213  A    between atoms: _496  and  _497
REMARK                            x       y       z     vdW  Elec       q    Type
REMARK                         _______ _______ _______ _____ _____    ______ ____
ROOT
ATOM      1  O   HOH     1      22.740  23.663  -0.247  0.00  0.00    +0.000 OA
ENDROOT
TORSDOF 0
REMARK  Name = ../refined-set-2016/2ews/2ews_pocket.pdb
REMARK  213 active torsions:
REMARK  status: ('A' for Active; 'I' for Inactive)
REMARK    1  A    between atoms: _1  and  _3
REMARK    2  A    between atoms: _3  and  _4
REMARK    3  A    between atoms: _3  and  _6
REMARK    4  A    between atoms: _6  and  _7
REMARK    5  A    between atoms: _10  and  _12
REMARK    6  A    between atoms: _12  and  _13
REMARK    7  A    between atoms: _16  and  _18
REMARK    8  A    between atoms: _18  and  _19
REMARK    9  A    between atoms: _21  and  _23
REMARK   10  A    between atoms: _23  and  _24
REMARK   11  A    between atoms: _26  and  _28
REMARK   12  A    between atoms: _28  and  _29
REMARK   13  A    between atoms: _28  and  _31
REMARK   14  A    between atoms: _31  and  _32
REMARK   15  A    between atoms: _35  and  _37
REMARK   16  A    between atoms: _37  and  _38
REMARK   17  A    between atoms: _37  and  _40
REMARK   18  A    between atoms: _40  and  _41
REMARK   19  A    between atoms: _44  and  _46
REMARK   20  A    between atoms: _46  and  _47
REMARK   21  A    between atoms: _46  and  _49
REMARK   22  A    between atoms: _49  and  _50
REMARK   23  A    between atoms: _53  and  _55
REMARK   24  A    between atoms: _55  and  _56
REMARK   25  A    between atoms: _55  and  _58
REMARK   26  A    between atoms: _58  and  _59
REMARK   27  A    between atoms: _59  and  _60
REMARK   28  A    between atoms: _60  and  _61
REMARK   29  A    between atoms: _61  and  _62
REMARK   30  A    between atoms: _66  and  _68
REMARK   31  A    between atoms: _68  and  _69
REMARK   32  A    between atoms: _68  and  _71
REMARK   33  A    between atoms: _71  and  _72
REMARK   34  A    between atoms: _75  and  _77
REMARK   35  A    between atoms: _77  and  _78
REMARK   36  A    between atoms: _77  and  _80
REMARK   37  A    between atoms: _80  and  _81
REMARK   38  A    between atoms: _81  and  _82
REMARK   39  A    between atoms: _85  and  _87
REMARK   40  A    between atoms: _87  and  _88
REMARK   41  A    between atoms: _87  and  _90
REMARK   42  A    between atoms: _90  and  _91
REMARK   43  A    between atoms: _94  and  _96
REMARK   44  A    between atoms: _96  and  _97
REMARK   45  A    between atoms: _96  and  _99
REMARK   46  A    between atoms: _99  and  _100
REMARK   47  A    between atoms: _103  and  _105
REMARK   48  A    between atoms: _105  and  _106
REMARK   49  A    between atoms: _105  and  _108
REMARK   50  A    between atoms: _108  and  _109
REMARK   51  A    between atoms: _109  and  _110
REMARK   52  A    between atoms: _110  and  _111
REMARK   53  A    between atoms: _111  and  _112
REMARK   54  A    between atoms: _116  and  _118
REMARK   55  A    between atoms: _118  and  _119
REMARK   56  A    between atoms: _118  and  _121
REMARK   57  A    between atoms: _121  and  _122
REMARK   58  A    between atoms: _125  and  _127
REMARK   59  A    between atoms: _127  and  _128
REMARK   60  A    between atoms: _130  and  _132
REMARK   61  A    between atoms: _132  and  _133
REMARK   62  A    between atoms: _135  and  _137
REMARK   63  A    between atoms: _137  and  _138
REMARK   64  A    between atoms: _137  and  _140
REMARK   65  A    between atoms: _140  and  _141
REMARK   66  A    between atoms: _146  and  _148
REMARK   67  A    between atoms: _148  and  _149
REMARK   68  A    between atoms: _148  and  _151
REMARK   69  A    between atoms: _151  and  _152
REMARK   70  A    between atoms: _152  and  _153
REMARK   71  A    between atoms: _156  and  _158
REMARK   72  A    between atoms: _158  and  _159
REMARK   73  A    between atoms: _158  and  _161
REMARK   74  A    between atoms: _161  and  _162
REMARK   75  A    between atoms: _168  and  _170
REMARK   76  A    between atoms: _170  and  _171
REMARK   77  A    between atoms: _170  and  _173
REMARK   78  A    between atoms: _173  and  _174
REMARK   79  A    between atoms: _179  and  _181
REMARK   80  A    between atoms: _181  and  _182
REMARK   81  A    between atoms: _181  and  _184
REMARK   82  A    between atoms: _187  and  _189
REMARK   83  A    between atoms: _189  and  _190
REMARK   84  A    between atoms: _192  and  _194
REMARK   85  A    between atoms: _194  and  _195
REMARK   86  A    between atoms: _194  and  _197
REMARK   87  A    between atoms: _197  and  _198
REMARK   88  A    between atoms: _201  and  _203
REMARK   89  A    between atoms: _203  and  _204
REMARK   90  A    between atoms: _206  and  _208
REMARK   91  A    between atoms: _208  and  _209
REMARK   92  A    between atoms: _208  and  _211
REMARK   93  A    between atoms: _211  and  _212
REMARK   94  A    between atoms: _215  and  _217
REMARK   95  A    between atoms: _217  and  _218
REMARK   96  A    between atoms: _217  and  _220
REMARK   97  A    between atoms: _220  and  _221
REMARK   98  A    between atoms: _223  and  _225
REMARK   99  A    between atoms: _225  and  _226
REMARK  100  A    between atoms: _228  and  _230
REMARK  101  A    between atoms: _230  and  _231
REMARK  102  A    between atoms: _233  and  _235
REMARK  103  A    between atoms: _235  and  _236
REMARK  104  A    between atoms: _238  and  _240
REMARK  105  A    between atoms: _240  and  _241
REMARK  106  A    between atoms: _240  and  _243
REMARK  107  A    between atoms: _243  and  _244
REMARK  108  A    between atoms: _244  and  _245
REMARK  109  A    between atoms: _247  and  _249
REMARK  110  A    between atoms: _249  and  _250
REMARK  111  A    between atoms: _249  and  _252
REMARK  112  A    between atoms: _252  and  _253
REMARK  113  A    between atoms: _256  and  _258
REMARK  114  A    between atoms: _258  and  _259
REMARK  115  A    between atoms: _258  and  _261
REMARK  116  A    between atoms: _261  and  _262
REMARK  117  A    between atoms: _262  and  _263
REMARK  118  A    between atoms: _268  and  _270
REMARK  119  A    between atoms: _270  and  _271
REMARK  120  A    between atoms: _273  and  _275
REMARK  121  A    between atoms: _275  and  _276
REMARK  122  A    between atoms: _275  and  _278
REMARK  123  A    between atoms: _278  and  _279
REMARK  124  A    between atoms: _282  and  _284
REMARK  125  A    between atoms: _284  and  _285
REMARK  126  A    between atoms: _284  and  _287
REMARK  127  A    between atoms: _287  and  _288
REMARK  128  A    between atoms: _291  and  _293
REMARK  129  A    between atoms: _293  and  _294
REMARK  130  A    between atoms: _293  and  _296
REMARK  131  A    between atoms: _296  and  _297
REMARK  132  A    between atoms: _302  and  _303
REMARK  133  A    between atoms: _305  and  _307
REMARK  134  A    between atoms: _307  and  _308
REMARK  135  A    between atoms: _307  and  _310
REMARK  136  A    between atoms: _310  and  _311
REMARK  137  A    between atoms: _311  and  _312
REMARK  138  A    between atoms: _312  and  _313
REMARK  139  A    between atoms: _313  and  _314
REMARK  140  A    between atoms: _318  and  _320
REMARK  141  A    between atoms: _320  and  _321
REMARK  142  A    between atoms: _320  and  _323
REMARK  143  A    between atoms: _323  and  _324
REMARK  144  A    between atoms: _327  and  _329
REMARK  145  A    between atoms: _329  and  _330
REMARK  146  A    between atoms: _329  and  _332
REMARK  147  A    between atoms: _332  and  _333
REMARK  148  A    between atoms: _336  and  _338
REMARK  149  A    between atoms: _338  and  _339
REMARK  150  A    between atoms: _338  and  _341
REMARK  151  A    between atoms: _341  and  _342
REMARK  152  A    between atoms: _345  and  _347
REMARK  153  A    between atoms: _347  and  _348
REMARK  154  A    between atoms: _350  and  _352
REMARK  155  A    between atoms: _352  and  _353
REMARK  156  A    between atoms: _352  and  _355
REMARK  157  A    between atoms: _355  and  _356
REMARK  158  A    between atoms: _358  and  _360
REMARK  159  A    between atoms: _360  and  _361
REMARK  160  A    between atoms: _360  and  _363
REMARK  161  A    between atoms: _363  and  _364
REMARK  162  A    between atoms: _366  and  _368
REMARK  163  A    between atoms: _368  and  _369
REMARK  164  A    between atoms: _368  and  _371
REMARK  165  A    between atoms: _371  and  _372
REMARK  166  A    between atoms: _378  and  _380
REMARK  167  A    between atoms: _380  and  _381
REMARK  168  A    between atoms: _380  and  _383
REMARK  169  A    between atoms: _383  and  _384
REMARK  170  A    between atoms: _389  and  _391
REMARK  171  A    between atoms: _391  and  _392
REMARK  172  A    between atoms: _391  and  _394
REMARK  173  A    between atoms: _394  and  _395
REMARK  174  A    between atoms: _400  and  _402
REMARK  175  A    between atoms: _402  and  _403
REMARK  176  A    between atoms: _402  and  _405
REMARK  177  A    between atoms: _405  and  _406
REMARK  178  A    between atoms: _411  and  _413
REMARK  179  A    between atoms: _413  and  _414
REMARK  180  A    between atoms: _413  and  _416
REMARK  181  A    between atoms: _416  and  _417
REMARK  182  A    between atoms: _420  and  _422
REMARK  183  A    between atoms: _422  and  _423
REMARK  184  A    between atoms: _425  and  _427
REMARK  185  A    between atoms: _427  and  _428
REMARK  186  A    between atoms: _431  and  _433
REMARK  187  A    between atoms: _433  and  _434
REMARK  188  A    between atoms: _433  and  _436
REMARK  189  A    between atoms: _436  and  _437
REMARK  190  A    between atoms: _443  and  _445
REMARK  191  A    between atoms: _445  and  _446
REMARK  192  A    between atoms: _445  and  _448
REMARK  193  A    between atoms: _448  and  _449
REMARK  194  A    between atoms: _451  and  _453
REMARK  195  A    between atoms: _453  and  _454
REMARK  196  A    between atoms: _456  and  _458
REMARK  197  A    between atoms: _458  and  _459
REMARK  198  A    between atoms: _458  and  _461
REMARK  199  A    between atoms: _461  and  _462
REMARK  200  A    between atoms: _465  and  _467
REMARK  201  A    between atoms: _467  and  _468
REMARK  202  A    between atoms: _467  and  _470
REMARK  203  A    between atoms: _470  and  _471
REMARK  204  A    between atoms: _474  and  _476
REMARK  205  A    between atoms: _476  and  _477
REMARK  206  A    between atoms: _480  and  _482
REMARK  207  A    between atoms: _482  and  _483
REMARK  208  A    between atoms: _486  and  _488
REMARK  209  A    between atoms: _488  and  _489
REMARK  210  A    between atoms: _491  and  _493
REMARK  211  A    between atoms: _493  and  _494
REMARK  212  A    between atoms: _493  and  _496
REMARK  213  A    between atoms: _496  and  _497
REMARK                            x       y       z     vdW  Elec       q    Type
REMARK                         _______ _______ _______ _____ _____    ______ ____
ROOT
ATOM      1  O   HOH     1      19.435  23.970  -7.798  0.00  0.00    +0.000 OA
ENDROOT
TORSDOF 0
REMARK  Name = ../refined-set-2016/2ews/2ews_pocket.pdb
REMARK  213 active torsions:
REMARK  status: ('A' for Active; 'I' for Inactive)
REMARK    1  A    between atoms: _1  and  _3
REMARK    2  A    between atoms: _3  and  _4
REMARK    3  A    between atoms: _3  and  _6
REMARK    4  A    between atoms: _6  and  _7
REMARK    5  A    between atoms: _10  and  _12
REMARK    6  A    between atoms: _12  and  _13
REMARK    7  A    between atoms: _16  and  _18
REMARK    8  A    between atoms: _18  and  _19
REMARK    9  A    between atoms: _21  and  _23
REMARK   10  A    between atoms: _23  and  _24
REMARK   11  A    between atoms: _26  and  _28
REMARK   12  A    between atoms: _28  and  _29
REMARK   13  A    between atoms: _28  and  _31
REMARK   14  A    between atoms: _31  and  _32
REMARK   15  A    between atoms: _35  and  _37
REMARK   16  A    between atoms: _37  and  _38
REMARK   17  A    between atoms: _37  and  _40
REMARK   18  A    between atoms: _40  and  _41
REMARK   19  A    between atoms: _44  and  _46
REMARK   20  A    between atoms: _46  and  _47
REMARK   21  A    between atoms: _46  and  _49
REMARK   22  A    between atoms: _49  and  _50
REMARK   23  A    between atoms: _53  and  _55
REMARK   24  A    between atoms: _55  and  _56
REMARK   25  A    between atoms: _55  and  _58
REMARK   26  A    between atoms: _58  and  _59
REMARK   27  A    between atoms: _59  and  _60
REMARK   28  A    between atoms: _60  and  _61
REMARK   29  A    between atoms: _61  and  _62
REMARK   30  A    between atoms: _66  and  _68
REMARK   31  A    between atoms: _68  and  _69
REMARK   32  A    between atoms: _68  and  _71
REMARK   33  A    between atoms: _71  and  _72
REMARK   34  A    between atoms: _75  and  _77
REMARK   35  A    between atoms: _77  and  _78
REMARK   36  A    between atoms: _77  and  _80
REMARK   37  A    between atoms: _80  and  _81
REMARK   38  A    between atoms: _81  and  _82
REMARK   39  A    between atoms: _85  and  _87
REMARK   40  A    between atoms: _87  and  _88
REMARK   41  A    between atoms: _87  and  _90
REMARK   42  A    between atoms: _90  and  _91
REMARK   43  A    between atoms: _94  and  _96
REMARK   44  A    between atoms: _96  and  _97
REMARK   45  A    between atoms: _96  and  _99
REMARK   46  A    between atoms: _99  and  _100
REMARK   47  A    between atoms: _103  and  _105
REMARK   48  A    between atoms: _105  and  _106
REMARK   49  A    between atoms: _105  and  _108
REMARK   50  A    between atoms: _108  and  _109
REMARK   51  A    between atoms: _109  and  _110
REMARK   52  A    between atoms: _110  and  _111
REMARK   53  A    between atoms: _111  and  _112
REMARK   54  A    between atoms: _116  and  _118
REMARK   55  A    between atoms: _118  and  _119
REMARK   56  A    between atoms: _118  and  _121
REMARK   57  A    between atoms: _121  and  _122
REMARK   58  A    between atoms: _125  and  _127
REMARK   59  A    between atoms: _127  and  _128
REMARK   60  A    between atoms: _130  and  _132
REMARK   61  A    between atoms: _132  and  _133
REMARK   62  A    between atoms: _135  and  _137
REMARK   63  A    between atoms: _137  and  _138
REMARK   64  A    between atoms: _137  and  _140
REMARK   65  A    between atoms: _140  and  _141
REMARK   66  A    between atoms: _146  and  _148
REMARK   67  A    between atoms: _148  and  _149
REMARK   68  A    between atoms: _148  and  _151
REMARK   69  A    between atoms: _151  and  _152
REMARK   70  A    between atoms: _152  and  _153
REMARK   71  A    between atoms: _156  and  _158
REMARK   72  A    between atoms: _158  and  _159
REMARK   73  A    between atoms: _158  and  _161
REMARK   74  A    between atoms: _161  and  _162
REMARK   75  A    between atoms: _168  and  _170
REMARK   76  A    between atoms: _170  and  _171
REMARK   77  A    between atoms: _170  and  _173
REMARK   78  A    between atoms: _173  and  _174
REMARK   79  A    between atoms: _179  and  _181
REMARK   80  A    between atoms: _181  and  _182
REMARK   81  A    between atoms: _181  and  _184
REMARK   82  A    between atoms: _187  and  _189
REMARK   83  A    between atoms: _189  and  _190
REMARK   84  A    between atoms: _192  and  _194
REMARK   85  A    between atoms: _194  and  _195
REMARK   86  A    between atoms: _194  and  _197
REMARK   87  A    between atoms: _197  and  _198
REMARK   88  A    between atoms: _201  and  _203
REMARK   89  A    between atoms: _203  and  _204
REMARK   90  A    between atoms: _206  and  _208
REMARK   91  A    between atoms: _208  and  _209
REMARK   92  A    between atoms: _208  and  _211
REMARK   93  A    between atoms: _211  and  _212
REMARK   94  A    between atoms: _215  and  _217
REMARK   95  A    between atoms: _217  and  _218
REMARK   96  A    between atoms: _217  and  _220
REMARK   97  A    between atoms: _220  and  _221
REMARK   98  A    between atoms: _223  and  _225
REMARK   99  A    between atoms: _225  and  _226
REMARK  100  A    between atoms: _228  and  _230
REMARK  101  A    between atoms: _230  and  _231
REMARK  102  A    between atoms: _233  and  _235
REMARK  103  A    between atoms: _235  and  _236
REMARK  104  A    between atoms: _238  and  _240
REMARK  105  A    between atoms: _240  and  _241
REMARK  106  A    between atoms: _240  and  _243
REMARK  107  A    between atoms: _243  and  _244
REMARK  108  A    between atoms: _244  and  _245
REMARK  109  A    between atoms: _247  and  _249
REMARK  110  A    between atoms: _249  and  _250
REMARK  111  A    between atoms: _249  and  _252
REMARK  112  A    between atoms: _252  and  _253
REMARK  113  A    between atoms: _256  and  _258
REMARK  114  A    between atoms: _258  and  _259
REMARK  115  A    between atoms: _258  and  _261
REMARK  116  A    between atoms: _261  and  _262
REMARK  117  A    between atoms: _262  and  _263
REMARK  118  A    between atoms: _268  and  _270
REMARK  119  A    between atoms: _270  and  _271
REMARK  120  A    between atoms: _273  and  _275
REMARK  121  A    between atoms: _275  and  _276
REMARK  122  A    between atoms: _275  and  _278
REMARK  123  A    between atoms: _278  and  _279
REMARK  124  A    between atoms: _282  and  _284
REMARK  125  A    between atoms: _284  and  _285
REMARK  126  A    between atoms: _284  and  _287
REMARK  127  A    between atoms: _287  and  _288
REMARK  128  A    between atoms: _291  and  _293
REMARK  129  A    between atoms: _293  and  _294
REMARK  130  A    between atoms: _293  and  _296
REMARK  131  A    between atoms: _296  and  _297
REMARK  132  A    between atoms: _302  and  _303
REMARK  133  A    between atoms: _305  and  _307
REMARK  134  A    between atoms: _307  and  _308
REMARK  135  A    between atoms: _307  and  _310
REMARK  136  A    between atoms: _310  and  _311
REMARK  137  A    between atoms: _311  and  _312
REMARK  138  A    between atoms: _312  and  _313
REMARK  139  A    between atoms: _313  and  _314
REMARK  140  A    between atoms: _318  and  _320
REMARK  141  A    between atoms: _320  and  _321
REMARK  142  A    between atoms: _320  and  _323
REMARK  143  A    between atoms: _323  and  _324
REMARK  144  A    between atoms: _327  and  _329
REMARK  145  A    between atoms: _329  and  _330
REMARK  146  A    between atoms: _329  and  _332
REMARK  147  A    between atoms: _332  and  _333
REMARK  148  A    between atoms: _336  and  _338
REMARK  149  A    between atoms: _338  and  _339
REMARK  150  A    between atoms: _338  and  _341
REMARK  151  A    between atoms: _341  and  _342
REMARK  152  A    between atoms: _345  and  _347
REMARK  153  A    between atoms: _347  and  _348
REMARK  154  A    between atoms: _350  and  _352
REMARK  155  A    between atoms: _352  and  _353
REMARK  156  A    between atoms: _352  and  _355
REMARK  157  A    between atoms: _355  and  _356
REMARK  158  A    between atoms: _358  and  _360
REMARK  159  A    between atoms: _360  and  _361
REMARK  160  A    between atoms: _360  and  _363
REMARK  161  A    between atoms: _363  and  _364
REMARK  162  A    between atoms: _366  and  _368
REMARK  163  A    between atoms: _368  and  _369
REMARK  164  A    between atoms: _368  and  _371
REMARK  165  A    between atoms: _371  and  _372
REMARK  166  A    between atoms: _378  and  _380
REMARK  167  A    between atoms: _380  and  _381
REMARK  168  A    between atoms: _380  and  _383
REMARK  169  A    between atoms: _383  and  _384
REMARK  170  A    between atoms: _389  and  _391
REMARK  171  A    between atoms: _391  and  _392
REMARK  172  A    between atoms: _391  and  _394
REMARK  173  A    between atoms: _394  and  _395
REMARK  174  A    between atoms: _400  and  _402
REMARK  175  A    between atoms: _402  and  _403
REMARK  176  A    between atoms: _402  and  _405
REMARK  177  A    between atoms: _405  and  _406
REMARK  178  A    between atoms: _411  and  _413
REMARK  179  A    between atoms: _413  and  _414
REMARK  180  A    between atoms: _413  and  _416
REMARK  181  A    between atoms: _416  and  _417
REMARK  182  A    between atoms: _420  and  _422
REMARK  183  A    between atoms: _422  and  _423
REMARK  184  A    between atoms: _425  and  _427
REMARK  185  A    between atoms: _427  and  _428
REMARK  186  A    between atoms: _431  and  _433
REMARK  187  A    between atoms: _433  and  _434
REMARK  188  A    between atoms: _433  and  _436
REMARK  189  A    between atoms: _436  and  _437
REMARK  190  A    between atoms: _443  and  _445
REMARK  191  A    between atoms: _445  and  _446
REMARK  192  A    between atoms: _445  and  _448
REMARK  193  A    between atoms: _448  and  _449
REMARK  194  A    between atoms: _451  and  _453
REMARK  195  A    between atoms: _453  and  _454
REMARK  196  A    between atoms: _456  and  _458
REMARK  197  A    between atoms: _458  and  _459
REMARK  198  A    between atoms: _458  and  _461
REMARK  199  A    between atoms: _461  and  _462
REMARK  200  A    between atoms: _465  and  _467
REMARK  201  A    between atoms: _467  and  _468
REMARK  202  A    between atoms: _467  and  _470
REMARK  203  A    between atoms: _470  and  _471
REMARK  204  A    between atoms: _474  and  _476
REMARK  205  A    between atoms: _476  and  _477
REMARK  206  A    between atoms: _480  and  _482
REMARK  207  A    between atoms: _482  and  _483
REMARK  208  A    between atoms: _486  and  _488
REMARK  209  A    between atoms: _488  and  _489
REMARK  210  A    between atoms: _491  and  _493
REMARK  211  A    between atoms: _493  and  _494
REMARK  212  A    between atoms: _493  and  _496
REMARK  213  A    between atoms: _496  and  _497
REMARK                            x       y       z     vdW  Elec       q    Type
REMARK                         _______ _______ _______ _____ _____    ______ ____
ROOT
ATOM      1  O   HOH     1      10.544  33.948   2.540  0.00  0.00    +0.000 OA
ENDROOT
TORSDOF 0
REMARK  Name = ../refined-set-2016/2ews/2ews_pocket.pdb
REMARK  213 active torsions:
REMARK  status: ('A' for Active; 'I' for Inactive)
REMARK    1  A    between atoms: _1  and  _3
REMARK    2  A    between atoms: _3  and  _4
REMARK    3  A    between atoms: _3  and  _6
REMARK    4  A    between atoms: _6  and  _7
REMARK    5  A    between atoms: _10  and  _12
REMARK    6  A    between atoms: _12  and  _13
REMARK    7  A    between atoms: _16  and  _18
REMARK    8  A    between atoms: _18  and  _19
REMARK    9  A    between atoms: _21  and  _23
REMARK   10  A    between atoms: _23  and  _24
REMARK   11  A    between atoms: _26  and  _28
REMARK   12  A    between atoms: _28  and  _29
REMARK   13  A    between atoms: _28  and  _31
REMARK   14  A    between atoms: _31  and  _32
REMARK   15  A    between atoms: _35  and  _37
REMARK   16  A    between atoms: _37  and  _38
REMARK   17  A    between atoms: _37  and  _40
REMARK   18  A    between atoms: _40  and  _41
REMARK   19  A    between atoms: _44  and  _46
REMARK   20  A    between atoms: _46  and  _47
REMARK   21  A    between atoms: _46  and  _49
REMARK   22  A    between atoms: _49  and  _50
REMARK   23  A    between atoms: _53  and  _55
REMARK   24  A    between atoms: _55  and  _56
REMARK   25  A    between atoms: _55  and  _58
REMARK   26  A    between atoms: _58  and  _59
REMARK   27  A    between atoms: _59  and  _60
REMARK   28  A    between atoms: _60  and  _61
REMARK   29  A    between atoms: _61  and  _62
REMARK   30  A    between atoms: _66  and  _68
REMARK   31  A    between atoms: _68  and  _69
REMARK   32  A    between atoms: _68  and  _71
REMARK   33  A    between atoms: _71  and  _72
REMARK   34  A    between atoms: _75  and  _77
REMARK   35  A    between atoms: _77  and  _78
REMARK   36  A    between atoms: _77  and  _80
REMARK   37  A    between atoms: _80  and  _81
REMARK   38  A    between atoms: _81  and  _82
REMARK   39  A    between atoms: _85  and  _87
REMARK   40  A    between atoms: _87  and  _88
REMARK   41  A    between atoms: _87  and  _90
REMARK   42  A    between atoms: _90  and  _91
REMARK   43  A    between atoms: _94  and  _96
REMARK   44  A    between atoms: _96  and  _97
REMARK   45  A    between atoms: _96  and  _99
REMARK   46  A    between atoms: _99  and  _100
REMARK   47  A    between atoms: _103  and  _105
REMARK   48  A    between atoms: _105  and  _106
REMARK   49  A    between atoms: _105  and  _108
REMARK   50  A    between atoms: _108  and  _109
REMARK   51  A    between atoms: _109  and  _110
REMARK   52  A    between atoms: _110  and  _111
REMARK   53  A    between atoms: _111  and  _112
REMARK   54  A    between atoms: _116  and  _118
REMARK   55  A    between atoms: _118  and  _119
REMARK   56  A    between atoms: _118  and  _121
REMARK   57  A    between atoms: _121  and  _122
REMARK   58  A    between atoms: _125  and  _127
REMARK   59  A    between atoms: _127  and  _128
REMARK   60  A    between atoms: _130  and  _132
REMARK   61  A    between atoms: _132  and  _133
REMARK   62  A    between atoms: _135  and  _137
REMARK   63  A    between atoms: _137  and  _138
REMARK   64  A    between atoms: _137  and  _140
REMARK   65  A    between atoms: _140  and  _141
REMARK   66  A    between atoms: _146  and  _148
REMARK   67  A    between atoms: _148  and  _149
REMARK   68  A    between atoms: _148  and  _151
REMARK   69  A    between atoms: _151  and  _152
REMARK   70  A    between atoms: _152  and  _153
REMARK   71  A    between atoms: _156  and  _158
REMARK   72  A    between atoms: _158  and  _159
REMARK   73  A    between atoms: _158  and  _161
REMARK   74  A    between atoms: _161  and  _162
REMARK   75  A    between atoms: _168  and  _170
REMARK   76  A    between atoms: _170  and  _171
REMARK   77  A    between atoms: _170  and  _173
REMARK   78  A    between atoms: _173  and  _174
REMARK   79  A    between atoms: _179  and  _181
REMARK   80  A    between atoms: _181  and  _182
REMARK   81  A    between atoms: _181  and  _184
REMARK   82  A    between atoms: _187  and  _189
REMARK   83  A    between atoms: _189  and  _190
REMARK   84  A    between atoms: _192  and  _194
REMARK   85  A    between atoms: _194  and  _195
REMARK   86  A    between atoms: _194  and  _197
REMARK   87  A    between atoms: _197  and  _198
REMARK   88  A    between atoms: _201  and  _203
REMARK   89  A    between atoms: _203  and  _204
REMARK   90  A    between atoms: _206  and  _208
REMARK   91  A    between atoms: _208  and  _209
REMARK   92  A    between atoms: _208  and  _211
REMARK   93  A    between atoms: _211  and  _212
REMARK   94  A    between atoms: _215  and  _217
REMARK   95  A    between atoms: _217  and  _218
REMARK   96  A    between atoms: _217  and  _220
REMARK   97  A    between atoms: _220  and  _221
REMARK   98  A    between atoms: _223  and  _225
REMARK   99  A    between atoms: _225  and  _226
REMARK  100  A    between atoms: _228  and  _230
REMARK  101  A    between atoms: _230  and  _231
REMARK  102  A    between atoms: _233  and  _235
REMARK  103  A    between atoms: _235  and  _236
REMARK  104  A    between atoms: _238  and  _240
REMARK  105  A    between atoms: _240  and  _241
REMARK  106  A    between atoms: _240  and  _243
REMARK  107  A    between atoms: _243  and  _244
REMARK  108  A    between atoms: _244  and  _245
REMARK  109  A    between atoms: _247  and  _249
REMARK  110  A    between atoms: _249  and  _250
REMARK  111  A    between atoms: _249  and  _252
REMARK  112  A    between atoms: _252  and  _253
REMARK  113  A    between atoms: _256  and  _258
REMARK  114  A    between atoms: _258  and  _259
REMARK  115  A    between atoms: _258  and  _261
REMARK  116  A    between atoms: _261  and  _262
REMARK  117  A    between atoms: _262  and  _263
REMARK  118  A    between atoms: _268  and  _270
REMARK  119  A    between atoms: _270  and  _271
REMARK  120  A    between atoms: _273  and  _275
REMARK  121  A    between atoms: _275  and  _276
REMARK  122  A    between atoms: _275  and  _278
REMARK  123  A    between atoms: _278  and  _279
REMARK  124  A    between atoms: _282  and  _284
REMARK  125  A    between atoms: _284  and  _285
REMARK  126  A    between atoms: _284  and  _287
REMARK  127  A    between atoms: _287  and  _288
REMARK  128  A    between atoms: _291  and  _293
REMARK  129  A    between atoms: _293  and  _294
REMARK  130  A    between atoms: _293  and  _296
REMARK  131  A    between atoms: _296  and  _297
REMARK  132  A    between atoms: _302  and  _303
REMARK  133  A    between atoms: _305  and  _307
REMARK  134  A    between atoms: _307  and  _308
REMARK  135  A    between atoms: _307  and  _310
REMARK  136  A    between atoms: _310  and  _311
REMARK  137  A    between atoms: _311  and  _312
REMARK  138  A    between atoms: _312  and  _313
REMARK  139  A    between atoms: _313  and  _314
REMARK  140  A    between atoms: _318  and  _320
REMARK  141  A    between atoms: _320  and  _321
REMARK  142  A    between atoms: _320  and  _323
REMARK  143  A    between atoms: _323  and  _324
REMARK  144  A    between atoms: _327  and  _329
REMARK  145  A    between atoms: _329  and  _330
REMARK  146  A    between atoms: _329  and  _332
REMARK  147  A    between atoms: _332  and  _333
REMARK  148  A    between atoms: _336  and  _338
REMARK  149  A    between atoms: _338  and  _339
REMARK  150  A    between atoms: _338  and  _341
REMARK  151  A    between atoms: _341  and  _342
REMARK  152  A    between atoms: _345  and  _347
REMARK  153  A    between atoms: _347  and  _348
REMARK  154  A    between atoms: _350  and  _352
REMARK  155  A    between atoms: _352  and  _353
REMARK  156  A    between atoms: _352  and  _355
REMARK  157  A    between atoms: _355  and  _356
REMARK  158  A    between atoms: _358  and  _360
REMARK  159  A    between atoms: _360  and  _361
REMARK  160  A    between atoms: _360  and  _363
REMARK  161  A    between atoms: _363  and  _364
REMARK  162  A    between atoms: _366  and  _368
REMARK  163  A    between atoms: _368  and  _369
REMARK  164  A    between atoms: _368  and  _371
REMARK  165  A    between atoms: _371  and  _372
REMARK  166  A    between atoms: _378  and  _380
REMARK  167  A    between atoms: _380  and  _381
REMARK  168  A    between atoms: _380  and  _383
REMARK  169  A    between atoms: _383  and  _384
REMARK  170  A    between atoms: _389  and  _391
REMARK  171  A    between atoms: _391  and  _392
REMARK  172  A    between atoms: _391  and  _394
REMARK  173  A    between atoms: _394  and  _395
REMARK  174  A    between atoms: _400  and  _402
REMARK  175  A    between atoms: _402  and  _403
REMARK  176  A    between atoms: _402  and  _405
REMARK  177  A    between atoms: _405  and  _406
REMARK  178  A    between atoms: _411  and  _413
REMARK  179  A    between atoms: _413  and  _414
REMARK  180  A    between atoms: _413  and  _416
REMARK  181  A    between atoms: _416  and  _417
REMARK  182  A    between atoms: _420  and  _422
REMARK  183  A    between atoms: _422  and  _423
REMARK  184  A    between atoms: _425  and  _427
REMARK  185  A    between atoms: _427  and  _428
REMARK  186  A    between atoms: _431  and  _433
REMARK  187  A    between atoms: _433  and  _434
REMARK  188  A    between atoms: _433  and  _436
REMARK  189  A    between atoms: _436  and  _437
REMARK  190  A    between atoms: _443  and  _445
REMARK  191  A    between atoms: _445  and  _446
REMARK  192  A    between atoms: _445  and  _448
REMARK  193  A    between atoms: _448  and  _449
REMARK  194  A    between atoms: _451  and  _453
REMARK  195  A    between atoms: _453  and  _454
REMARK  196  A    between atoms: _456  and  _458
REMARK  197  A    between atoms: _458  and  _459
REMARK  198  A    between atoms: _458  and  _461
REMARK  199  A    between atoms: _461  and  _462
REMARK  200  A    between atoms: _465  and  _467
REMARK  201  A    between atoms: _467  and  _468
REMARK  202  A    between atoms: _467  and  _470
REMARK  203  A    between atoms: _470  and  _471
REMARK  204  A    between atoms: _474  and  _476
REMARK  205  A    between atoms: _476  and  _477
REMARK  206  A    between atoms: _480  and  _482
REMARK  207  A    between atoms: _482  and  _483
REMARK  208  A    between atoms: _486  and  _488
REMARK  209  A    between atoms: _488  and  _489
REMARK  210  A    between atoms: _491  and  _493
REMARK  211  A    between atoms: _493  and  _494
REMARK  212  A    between atoms: _493  and  _496
REMARK  213  A    between atoms: _496  and  _497
REMARK                            x       y       z     vdW  Elec       q    Type
REMARK                         _______ _______ _______ _____ _____    ______ ____
ROOT
ATOM      1  O   HOH     1      13.608  30.715   1.952  0.00  0.00    +0.000 OA
ENDROOT
TORSDOF 0
