REMARK  Name = ../refined-set-2016/4rux/4rux_pocket.pdb
REMARK  147 active torsions:
REMARK  status: ('A' for Active; 'I' for Inactive)
REMARK    1  A    between atoms: _1  and  _3
REMARK    2  A    between atoms: _3  and  _4
REMARK    3  A    between atoms: _3  and  _6
REMARK    4  A    between atoms: _6  and  _7
REMARK    5  A    between atoms: _17  and  _19
REMARK    6  A    between atoms: _19  and  _20
REMARK    7  A    between atoms: _19  and  _22
REMARK    8  A    between atoms: _22  and  _23
REMARK    9  A    between atoms: _28  and  _29
REMARK   10  A    between atoms: _31  and  _33
REMARK   11  A    between atoms: _33  and  _34
REMARK   12  A    between atoms: _33  and  _36
REMARK   13  A    between atoms: _36  and  _37
REMARK   14  A    between atoms: _40  and  _41
REMARK   15  A    between atoms: _46  and  _48
REMARK   16  A    between atoms: _48  and  _49
REMARK   17  A    between atoms: _48  and  _51
REMARK   18  A    between atoms: _51  and  _52
REMARK   19  A    between atoms: _57  and  _59
REMARK   20  A    between atoms: _59  and  _60
REMARK   21  A    between atoms: _63  and  _65
REMARK   22  A    between atoms: _65  and  _66
REMARK   23  A    between atoms: _65  and  _68
REMARK   24  A    between atoms: _68  and  _69
REMARK   25  A    between atoms: _74  and  _76
REMARK   26  A    between atoms: _76  and  _77
REMARK   27  A    between atoms: _76  and  _79
REMARK   28  A    between atoms: _79  and  _80
REMARK   29  A    between atoms: _83  and  _85
REMARK   30  A    between atoms: _85  and  _86
REMARK   31  A    between atoms: _85  and  _88
REMARK   32  A    between atoms: _88  and  _89
REMARK   33  A    between atoms: _89  and  _90
REMARK   34  A    between atoms: _95  and  _97
REMARK   35  A    between atoms: _97  and  _98
REMARK   36  A    between atoms: _97  and  _100
REMARK   37  A    between atoms: _100  and  _101
REMARK   38  A    between atoms: _107  and  _109
REMARK   39  A    between atoms: _120  and  _123
REMARK   40  A    between atoms: _123  and  _124
REMARK   41  A    between atoms: _132  and  _133
REMARK   42  A    between atoms: _141  and  _143
REMARK   43  A    between atoms: _143  and  _144
REMARK   44  A    between atoms: _143  and  _146
REMARK   45  A    between atoms: _146  and  _147
REMARK   46  A    between atoms: _147  and  _148
REMARK   47  A    between atoms: _151  and  _153
REMARK   48  A    between atoms: _153  and  _154
REMARK   49  A    between atoms: _153  and  _156
REMARK   50  A    between atoms: _156  and  _157
REMARK   51  A    between atoms: _162  and  _164
REMARK   52  A    between atoms: _164  and  _165
REMARK   53  A    between atoms: _164  and  _167
REMARK   54  A    between atoms: _167  and  _168
REMARK   55  A    between atoms: _168  and  _169
REMARK   56  A    between atoms: _172  and  _174
REMARK   57  A    between atoms: _174  and  _175
REMARK   58  A    between atoms: _174  and  _177
REMARK   59  A    between atoms: _177  and  _178
REMARK   60  A    between atoms: _181  and  _183
REMARK   61  A    between atoms: _183  and  _184
REMARK   62  A    between atoms: _183  and  _186
REMARK   63  A    between atoms: _186  and  _187
REMARK   64  A    between atoms: _188  and  ZN_413
REMARK   65  A    between atoms: _192  and  _194
REMARK   66  A    between atoms: _194  and  _195
REMARK   67  A    between atoms: _194  and  _197
REMARK   68  A    between atoms: _197  and  _198
REMARK   69  A    between atoms: _201  and  _203
REMARK   70  A    between atoms: _203  and  _204
REMARK   71  A    between atoms: _203  and  _206
REMARK   72  A    between atoms: _209  and  _211
REMARK   73  A    between atoms: _211  and  _212
REMARK   74  A    between atoms: _211  and  _214
REMARK   75  A    between atoms: _214  and  _215
REMARK   76  A    between atoms: _220  and  _222
REMARK   77  A    between atoms: _222  and  _223
REMARK   78  A    between atoms: _222  and  _225
REMARK   79  A    between atoms: _225  and  _226
REMARK   80  A    between atoms: _232  and  _234
REMARK   81  A    between atoms: _234  and  _235
REMARK   82  A    between atoms: _237  and  _239
REMARK   83  A    between atoms: _239  and  _240
REMARK   84  A    between atoms: _239  and  _242
REMARK   85  A    between atoms: _245  and  _247
REMARK   86  A    between atoms: _247  and  _248
REMARK   87  A    between atoms: _247  and  _250
REMARK   88  A    between atoms: _250  and  _251
REMARK   89  A    between atoms: _254  and  _256
REMARK   90  A    between atoms: _256  and  _257
REMARK   91  A    between atoms: _260  and  _262
REMARK   92  A    between atoms: _262  and  _263
REMARK   93  A    between atoms: _262  and  _265
REMARK   94  A    between atoms: _268  and  _270
REMARK   95  A    between atoms: _270  and  _271
REMARK   96  A    between atoms: _270  and  _273
REMARK   97  A    between atoms: _273  and  _274
REMARK   98  A    between atoms: _277  and  _279
REMARK   99  A    between atoms: _279  and  _280
REMARK  100  A    between atoms: _282  and  _284
REMARK  101  A    between atoms: _284  and  _285
REMARK  102  A    between atoms: _287  and  _289
REMARK  103  A    between atoms: _289  and  _290
REMARK  104  A    between atoms: _289  and  _292
REMARK  105  A    between atoms: _292  and  _293
REMARK  106  A    between atoms: _295  and  _297
REMARK  107  A    between atoms: _297  and  _298
REMARK  108  A    between atoms: _297  and  _300
REMARK  109  A    between atoms: _300  and  _301
REMARK  110  A    between atoms: _304  and  _306
REMARK  111  A    between atoms: _306  and  _307
REMARK  112  A    between atoms: _306  and  _309
REMARK  113  A    between atoms: _309  and  _310
REMARK  114  A    between atoms: _313  and  _315
REMARK  115  A    between atoms: _315  and  _316
REMARK  116  A    between atoms: _315  and  _318
REMARK  117  A    between atoms: _318  and  _319
REMARK  118  A    between atoms: _323  and  _324
REMARK  119  A    between atoms: _330  and  _331
REMARK  120  A    between atoms: _336  and  _338
REMARK  121  A    between atoms: _338  and  _339
REMARK  122  A    between atoms: _338  and  _341
REMARK  123  A    between atoms: _341  and  _342
REMARK  124  A    between atoms: _345  and  _347
REMARK  125  A    between atoms: _347  and  _348
REMARK  126  A    between atoms: _347  and  _350
REMARK  127  A    between atoms: _350  and  _351
REMARK  128  A    between atoms: _354  and  _356
REMARK  129  A    between atoms: _356  and  _357
REMARK  130  A    between atoms: _356  and  _359
REMARK  131  A    between atoms: _361  and  _363
REMARK  132  A    between atoms: _363  and  _364
REMARK  133  A    between atoms: _363  and  _366
REMARK  134  A    between atoms: _369  and  _371
REMARK  135  A    between atoms: _371  and  _372
REMARK  136  A    between atoms: _371  and  _374
REMARK  137  A    between atoms: _374  and  _375
REMARK  138  A    between atoms: _385  and  _387
REMARK  139  A    between atoms: _387  and  _388
REMARK  140  A    between atoms: _387  and  _390
REMARK  141  A    between atoms: _390  and  _391
REMARK  142  A    between atoms: _396  and  _398
REMARK  143  A    between atoms: _398  and  _399
REMARK  144  A    between atoms: _398  and  _401
REMARK  145  A    between atoms: _401  and  _402
REMARK  146  A    between atoms: _402  and  _403
REMARK  147  A    between atoms: _403  and  _404
REMARK                            x       y       z     vdW  Elec       q    Type
REMARK                         _______ _______ _______ _____ _____    ______ ____
ROOT
ATOM      1  CG  TRP A   1       5.841   0.189  12.121  0.00  0.00    -0.002 A 
ATOM      2  CD2 TRP A   1       4.484  -0.254  12.059  0.00  0.00    +0.013 A 
ATOM      3  CE3 TRP A   1       3.856  -1.485  12.271  0.00  0.00    +0.001 A 
ATOM      4  CZ3 TRP A   1       2.486  -1.559  12.127  0.00  0.00    +0.000 A 
ATOM      5  CH2 TRP A   1       1.733  -0.433  11.771  0.00  0.00    +0.001 A 
ATOM      6  CZ2 TRP A   1       2.315   0.780  11.558  0.00  0.00    +0.017 A 
ATOM      7  CE2 TRP A   1       3.698   0.861  11.703  0.00  0.00    +0.056 A 
ATOM      8  NE1 TRP A   1       4.541   1.932  11.557  0.00  0.00    -0.352 N 
ATOM      9  HE1 TRP A   1       4.253   2.897  11.297  0.00  0.00    +0.166 HD
ATOM     10  CD1 TRP A   1       5.826   1.524  11.809  0.00  0.00    +0.068 A 
ENDROOT
BRANCH   1  11
ATOM     11  CB  TRP A   1       7.031  -0.641  12.462  0.00  0.00    +0.053 C 
BRANCH  11  12
ATOM     12  CA  TRP A   1       7.675  -1.303  11.246  0.00  0.00    +0.137 C 
BRANCH  12  13
ATOM     13  N   TRP A   1       8.272  -0.291  10.385  0.00  0.00    -0.239 NA
ATOM     14  H   TRP A   1       8.104   0.713  10.597  0.00  0.00    +0.142 HD
ENDBRANCH  12  13
BRANCH  12  15
ATOM     15  C   TRP A   1       6.633  -2.099  10.481  0.00  0.00    +0.224 C 
ATOM     16  O   TRP A   1       6.063  -1.623   9.497  0.00  0.00    -0.287 OA
ENDBRANCH  12  15
ENDBRANCH  11  12
ENDBRANCH   1  11
TORSDOF 4
REMARK  Name = ../refined-set-2016/4rux/4rux_pocket.pdb
REMARK  147 active torsions:
REMARK  status: ('A' for Active; 'I' for Inactive)
REMARK    1  A    between atoms: _1  and  _3
REMARK    2  A    between atoms: _3  and  _4
REMARK    3  A    between atoms: _3  and  _6
REMARK    4  A    between atoms: _6  and  _7
REMARK    5  A    between atoms: _17  and  _19
REMARK    6  A    between atoms: _19  and  _20
REMARK    7  A    between atoms: _19  and  _22
REMARK    8  A    between atoms: _22  and  _23
REMARK    9  A    between atoms: _28  and  _29
REMARK   10  A    between atoms: _31  and  _33
REMARK   11  A    between atoms: _33  and  _34
REMARK   12  A    between atoms: _33  and  _36
REMARK   13  A    between atoms: _36  and  _37
REMARK   14  A    between atoms: _40  and  _41
REMARK   15  A    between atoms: _46  and  _48
REMARK   16  A    between atoms: _48  and  _49
REMARK   17  A    between atoms: _48  and  _51
REMARK   18  A    between atoms: _51  and  _52
REMARK   19  A    between atoms: _57  and  _59
REMARK   20  A    between atoms: _59  and  _60
REMARK   21  A    between atoms: _63  and  _65
REMARK   22  A    between atoms: _65  and  _66
REMARK   23  A    between atoms: _65  and  _68
REMARK   24  A    between atoms: _68  and  _69
REMARK   25  A    between atoms: _74  and  _76
REMARK   26  A    between atoms: _76  and  _77
REMARK   27  A    between atoms: _76  and  _79
REMARK   28  A    between atoms: _79  and  _80
REMARK   29  A    between atoms: _83  and  _85
REMARK   30  A    between atoms: _85  and  _86
REMARK   31  A    between atoms: _85  and  _88
REMARK   32  A    between atoms: _88  and  _89
REMARK   33  A    between atoms: _89  and  _90
REMARK   34  A    between atoms: _95  and  _97
REMARK   35  A    between atoms: _97  and  _98
REMARK   36  A    between atoms: _97  and  _100
REMARK   37  A    between atoms: _100  and  _101
REMARK   38  A    between atoms: _107  and  _109
REMARK   39  A    between atoms: _120  and  _123
REMARK   40  A    between atoms: _123  and  _124
REMARK   41  A    between atoms: _132  and  _133
REMARK   42  A    between atoms: _141  and  _143
REMARK   43  A    between atoms: _143  and  _144
REMARK   44  A    between atoms: _143  and  _146
REMARK   45  A    between atoms: _146  and  _147
REMARK   46  A    between atoms: _147  and  _148
REMARK   47  A    between atoms: _151  and  _153
REMARK   48  A    between atoms: _153  and  _154
REMARK   49  A    between atoms: _153  and  _156
REMARK   50  A    between atoms: _156  and  _157
REMARK   51  A    between atoms: _162  and  _164
REMARK   52  A    between atoms: _164  and  _165
REMARK   53  A    between atoms: _164  and  _167
REMARK   54  A    between atoms: _167  and  _168
REMARK   55  A    between atoms: _168  and  _169
REMARK   56  A    between atoms: _172  and  _174
REMARK   57  A    between atoms: _174  and  _175
REMARK   58  A    between atoms: _174  and  _177
REMARK   59  A    between atoms: _177  and  _178
REMARK   60  A    between atoms: _181  and  _183
REMARK   61  A    between atoms: _183  and  _184
REMARK   62  A    between atoms: _183  and  _186
REMARK   63  A    between atoms: _186  and  _187
REMARK   64  A    between atoms: _188  and  ZN_413
REMARK   65  A    between atoms: _192  and  _194
REMARK   66  A    between atoms: _194  and  _195
REMARK   67  A    between atoms: _194  and  _197
REMARK   68  A    between atoms: _197  and  _198
REMARK   69  A    between atoms: _201  and  _203
REMARK   70  A    between atoms: _203  and  _204
REMARK   71  A    between atoms: _203  and  _206
REMARK   72  A    between atoms: _209  and  _211
REMARK   73  A    between atoms: _211  and  _212
REMARK   74  A    between atoms: _211  and  _214
REMARK   75  A    between atoms: _214  and  _215
REMARK   76  A    between atoms: _220  and  _222
REMARK   77  A    between atoms: _222  and  _223
REMARK   78  A    between atoms: _222  and  _225
REMARK   79  A    between atoms: _225  and  _226
REMARK   80  A    between atoms: _232  and  _234
REMARK   81  A    between atoms: _234  and  _235
REMARK   82  A    between atoms: _237  and  _239
REMARK   83  A    between atoms: _239  and  _240
REMARK   84  A    between atoms: _239  and  _242
REMARK   85  A    between atoms: _245  and  _247
REMARK   86  A    between atoms: _247  and  _248
REMARK   87  A    between atoms: _247  and  _250
REMARK   88  A    between atoms: _250  and  _251
REMARK   89  A    between atoms: _254  and  _256
REMARK   90  A    between atoms: _256  and  _257
REMARK   91  A    between atoms: _260  and  _262
REMARK   92  A    between atoms: _262  and  _263
REMARK   93  A    between atoms: _262  and  _265
REMARK   94  A    between atoms: _268  and  _270
REMARK   95  A    between atoms: _270  and  _271
REMARK   96  A    between atoms: _270  and  _273
REMARK   97  A    between atoms: _273  and  _274
REMARK   98  A    between atoms: _277  and  _279
REMARK   99  A    between atoms: _279  and  _280
REMARK  100  A    between atoms: _282  and  _284
REMARK  101  A    between atoms: _284  and  _285
REMARK  102  A    between atoms: _287  and  _289
REMARK  103  A    between atoms: _289  and  _290
REMARK  104  A    between atoms: _289  and  _292
REMARK  105  A    between atoms: _292  and  _293
REMARK  106  A    between atoms: _295  and  _297
REMARK  107  A    between atoms: _297  and  _298
REMARK  108  A    between atoms: _297  and  _300
REMARK  109  A    between atoms: _300  and  _301
REMARK  110  A    between atoms: _304  and  _306
REMARK  111  A    between atoms: _306  and  _307
REMARK  112  A    between atoms: _306  and  _309
REMARK  113  A    between atoms: _309  and  _310
REMARK  114  A    between atoms: _313  and  _315
REMARK  115  A    between atoms: _315  and  _316
REMARK  116  A    between atoms: _315  and  _318
REMARK  117  A    between atoms: _318  and  _319
REMARK  118  A    between atoms: _323  and  _324
REMARK  119  A    between atoms: _330  and  _331
REMARK  120  A    between atoms: _336  and  _338
REMARK  121  A    between atoms: _338  and  _339
REMARK  122  A    between atoms: _338  and  _341
REMARK  123  A    between atoms: _341  and  _342
REMARK  124  A    between atoms: _345  and  _347
REMARK  125  A    between atoms: _347  and  _348
REMARK  126  A    between atoms: _347  and  _350
REMARK  127  A    between atoms: _350  and  _351
REMARK  128  A    between atoms: _354  and  _356
REMARK  129  A    between atoms: _356  and  _357
REMARK  130  A    between atoms: _356  and  _359
REMARK  131  A    between atoms: _361  and  _363
REMARK  132  A    between atoms: _363  and  _364
REMARK  133  A    between atoms: _363  and  _366
REMARK  134  A    between atoms: _369  and  _371
REMARK  135  A    between atoms: _371  and  _372
REMARK  136  A    between atoms: _371  and  _374
REMARK  137  A    between atoms: _374  and  _375
REMARK  138  A    between atoms: _385  and  _387
REMARK  139  A    between atoms: _387  and  _388
REMARK  140  A    between atoms: _387  and  _390
REMARK  141  A    between atoms: _390  and  _391
REMARK  142  A    between atoms: _396  and  _398
REMARK  143  A    between atoms: _398  and  _399
REMARK  144  A    between atoms: _398  and  _401
REMARK  145  A    between atoms: _401  and  _402
REMARK  146  A    between atoms: _402  and  _403
REMARK  147  A    between atoms: _403  and  _404
REMARK                            x       y       z     vdW  Elec       q    Type
REMARK                         _______ _______ _______ _____ _____    ______ ____
ROOT
ATOM      1  CG  TYR A   1       1.931  -6.861  11.722  0.00  0.00    -0.020 A 
ATOM      2  CD2 TYR A   1       1.532  -6.869  13.054  0.00  0.00    -0.001 A 
ATOM      3  CE2 TYR A   1       0.709  -5.889  13.562  0.00  0.00    +0.036 A 
ATOM      4  CZ  TYR A   1       0.264  -4.895  12.731  0.00  0.00    +0.134 A 
ATOM      5  CE1 TYR A   1       0.649  -4.864  11.409  0.00  0.00    +0.036 A 
ATOM      6  CD1 TYR A   1       1.472  -5.844  10.911  0.00  0.00    -0.001 A 
ENDROOT
BRANCH   4   7
ATOM      7  OH  TYR A   1      -0.562  -3.907  13.201  0.00  0.00    -0.506 OA
ATOM      8  HH  TYR A   1      -0.749  -4.063  14.160  0.00  0.00    +0.292 HD
ENDBRANCH   4   7
BRANCH   1   9
ATOM      9  CB  TYR A   1       2.838  -7.935  11.176  0.00  0.00    +0.051 C 
BRANCH   9  10
ATOM     10  CA  TYR A   1       4.317  -7.644  11.413  0.00  0.00    +0.137 C 
BRANCH  10  11
ATOM     11  N   TYR A   1       4.729  -6.460  10.673  0.00  0.00    -0.239 NA
ATOM     12  H   TYR A   1       4.797  -6.515   9.637  0.00  0.00    +0.142 HD
ENDBRANCH  10  11
BRANCH  10  13
ATOM     13  C   TYR A   1       5.162  -8.855  11.028  0.00  0.00    +0.224 C 
ATOM     14  O   TYR A   1       4.802  -9.995  11.324  0.00  0.00    -0.287 OA
ENDBRANCH  10  13
ENDBRANCH   9  10
ENDBRANCH   1   9
TORSDOF 5
REMARK  Name = ../refined-set-2016/4rux/4rux_pocket.pdb
REMARK  147 active torsions:
REMARK  status: ('A' for Active; 'I' for Inactive)
REMARK    1  A    between atoms: _1  and  _3
REMARK    2  A    between atoms: _3  and  _4
REMARK    3  A    between atoms: _3  and  _6
REMARK    4  A    between atoms: _6  and  _7
REMARK    5  A    between atoms: _17  and  _19
REMARK    6  A    between atoms: _19  and  _20
REMARK    7  A    between atoms: _19  and  _22
REMARK    8  A    between atoms: _22  and  _23
REMARK    9  A    between atoms: _28  and  _29
REMARK   10  A    between atoms: _31  and  _33
REMARK   11  A    between atoms: _33  and  _34
REMARK   12  A    between atoms: _33  and  _36
REMARK   13  A    between atoms: _36  and  _37
REMARK   14  A    between atoms: _40  and  _41
REMARK   15  A    between atoms: _46  and  _48
REMARK   16  A    between atoms: _48  and  _49
REMARK   17  A    between atoms: _48  and  _51
REMARK   18  A    between atoms: _51  and  _52
REMARK   19  A    between atoms: _57  and  _59
REMARK   20  A    between atoms: _59  and  _60
REMARK   21  A    between atoms: _63  and  _65
REMARK   22  A    between atoms: _65  and  _66
REMARK   23  A    between atoms: _65  and  _68
REMARK   24  A    between atoms: _68  and  _69
REMARK   25  A    between atoms: _74  and  _76
REMARK   26  A    between atoms: _76  and  _77
REMARK   27  A    between atoms: _76  and  _79
REMARK   28  A    between atoms: _79  and  _80
REMARK   29  A    between atoms: _83  and  _85
REMARK   30  A    between atoms: _85  and  _86
REMARK   31  A    between atoms: _85  and  _88
REMARK   32  A    between atoms: _88  and  _89
REMARK   33  A    between atoms: _89  and  _90
REMARK   34  A    between atoms: _95  and  _97
REMARK   35  A    between atoms: _97  and  _98
REMARK   36  A    between atoms: _97  and  _100
REMARK   37  A    between atoms: _100  and  _101
REMARK   38  A    between atoms: _107  and  _109
REMARK   39  A    between atoms: _120  and  _123
REMARK   40  A    between atoms: _123  and  _124
REMARK   41  A    between atoms: _132  and  _133
REMARK   42  A    between atoms: _141  and  _143
REMARK   43  A    between atoms: _143  and  _144
REMARK   44  A    between atoms: _143  and  _146
REMARK   45  A    between atoms: _146  and  _147
REMARK   46  A    between atoms: _147  and  _148
REMARK   47  A    between atoms: _151  and  _153
REMARK   48  A    between atoms: _153  and  _154
REMARK   49  A    between atoms: _153  and  _156
REMARK   50  A    between atoms: _156  and  _157
REMARK   51  A    between atoms: _162  and  _164
REMARK   52  A    between atoms: _164  and  _165
REMARK   53  A    between atoms: _164  and  _167
REMARK   54  A    between atoms: _167  and  _168
REMARK   55  A    between atoms: _168  and  _169
REMARK   56  A    between atoms: _172  and  _174
REMARK   57  A    between atoms: _174  and  _175
REMARK   58  A    between atoms: _174  and  _177
REMARK   59  A    between atoms: _177  and  _178
REMARK   60  A    between atoms: _181  and  _183
REMARK   61  A    between atoms: _183  and  _184
REMARK   62  A    between atoms: _183  and  _186
REMARK   63  A    between atoms: _186  and  _187
REMARK   64  A    between atoms: _188  and  ZN_413
REMARK   65  A    between atoms: _192  and  _194
REMARK   66  A    between atoms: _194  and  _195
REMARK   67  A    between atoms: _194  and  _197
REMARK   68  A    between atoms: _197  and  _198
REMARK   69  A    between atoms: _201  and  _203
REMARK   70  A    between atoms: _203  and  _204
REMARK   71  A    between atoms: _203  and  _206
REMARK   72  A    between atoms: _209  and  _211
REMARK   73  A    between atoms: _211  and  _212
REMARK   74  A    between atoms: _211  and  _214
REMARK   75  A    between atoms: _214  and  _215
REMARK   76  A    between atoms: _220  and  _222
REMARK   77  A    between atoms: _222  and  _223
REMARK   78  A    between atoms: _222  and  _225
REMARK   79  A    between atoms: _225  and  _226
REMARK   80  A    between atoms: _232  and  _234
REMARK   81  A    between atoms: _234  and  _235
REMARK   82  A    between atoms: _237  and  _239
REMARK   83  A    between atoms: _239  and  _240
REMARK   84  A    between atoms: _239  and  _242
REMARK   85  A    between atoms: _245  and  _247
REMARK   86  A    between atoms: _247  and  _248
REMARK   87  A    between atoms: _247  and  _250
REMARK   88  A    between atoms: _250  and  _251
REMARK   89  A    between atoms: _254  and  _256
REMARK   90  A    between atoms: _256  and  _257
REMARK   91  A    between atoms: _260  and  _262
REMARK   92  A    between atoms: _262  and  _263
REMARK   93  A    between atoms: _262  and  _265
REMARK   94  A    between atoms: _268  and  _270
REMARK   95  A    between atoms: _270  and  _271
REMARK   96  A    between atoms: _270  and  _273
REMARK   97  A    between atoms: _273  and  _274
REMARK   98  A    between atoms: _277  and  _279
REMARK   99  A    between atoms: _279  and  _280
REMARK  100  A    between atoms: _282  and  _284
REMARK  101  A    between atoms: _284  and  _285
REMARK  102  A    between atoms: _287  and  _289
REMARK  103  A    between atoms: _289  and  _290
REMARK  104  A    between atoms: _289  and  _292
REMARK  105  A    between atoms: _292  and  _293
REMARK  106  A    between atoms: _295  and  _297
REMARK  107  A    between atoms: _297  and  _298
REMARK  108  A    between atoms: _297  and  _300
REMARK  109  A    between atoms: _300  and  _301
REMARK  110  A    between atoms: _304  and  _306
REMARK  111  A    between atoms: _306  and  _307
REMARK  112  A    between atoms: _306  and  _309
REMARK  113  A    between atoms: _309  and  _310
REMARK  114  A    between atoms: _313  and  _315
REMARK  115  A    between atoms: _315  and  _316
REMARK  116  A    between atoms: _315  and  _318
REMARK  117  A    between atoms: _318  and  _319
REMARK  118  A    between atoms: _323  and  _324
REMARK  119  A    between atoms: _330  and  _331
REMARK  120  A    between atoms: _336  and  _338
REMARK  121  A    between atoms: _338  and  _339
REMARK  122  A    between atoms: _338  and  _341
REMARK  123  A    between atoms: _341  and  _342
REMARK  124  A    between atoms: _345  and  _347
REMARK  125  A    between atoms: _347  and  _348
REMARK  126  A    between atoms: _347  and  _350
REMARK  127  A    between atoms: _350  and  _351
REMARK  128  A    between atoms: _354  and  _356
REMARK  129  A    between atoms: _356  and  _357
REMARK  130  A    between atoms: _356  and  _359
REMARK  131  A    between atoms: _361  and  _363
REMARK  132  A    between atoms: _363  and  _364
REMARK  133  A    between atoms: _363  and  _366
REMARK  134  A    between atoms: _369  and  _371
REMARK  135  A    between atoms: _371  and  _372
REMARK  136  A    between atoms: _371  and  _374
REMARK  137  A    between atoms: _374  and  _375
REMARK  138  A    between atoms: _385  and  _387
REMARK  139  A    between atoms: _387  and  _388
REMARK  140  A    between atoms: _387  and  _390
REMARK  141  A    between atoms: _390  and  _391
REMARK  142  A    between atoms: _396  and  _398
REMARK  143  A    between atoms: _398  and  _399
REMARK  144  A    between atoms: _398  and  _401
REMARK  145  A    between atoms: _401  and  _402
REMARK  146  A    between atoms: _402  and  _403
REMARK  147  A    between atoms: _403  and  _404
REMARK                            x       y       z     vdW  Elec       q    Type
REMARK                         _______ _______ _______ _____ _____    ______ ____
ROOT
ATOM      1  C   SER A   1      -2.311  -2.983  23.059  0.00  0.00    +0.244 C 
ATOM      2  N   PRO A   2      -2.953  -4.133  22.817  0.00  0.00    -0.273 N 
ATOM      3  CA  PRO A   2      -4.124  -4.661  23.510  0.00  0.00    +0.140 C 
ATOM      4  CB  PRO A   2      -4.637  -5.708  22.523  0.00  0.00    +0.030 C 
ATOM      5  CG  PRO A   2      -3.389  -6.247  21.919  0.00  0.00    +0.024 C 
ATOM      6  CD  PRO A   2      -2.489  -5.052  21.760  0.00  0.00    +0.094 C 
ATOM      7  O   SER A   1      -1.353  -2.616  22.377  0.00  0.00    -0.273 OA
ENDROOT
BRANCH   3   8
ATOM      8  C   PRO A   2      -3.708  -5.333  24.813  0.00  0.00    +0.227 C 
ATOM      9  O   PRO A   2      -2.528  -5.355  25.156  0.00  0.00    -0.286 OA
ENDBRANCH   3   8
BRANCH   1  10
ATOM     10  CA  SER A   1      -2.838  -2.105  24.191  0.00  0.00    +0.175 C 
BRANCH  10  11
ATOM     11  N   SER A   1      -1.783  -1.227  24.675  0.00  0.00    -0.236 NA
ATOM     12  H   SER A   1      -1.300  -0.614  23.988  0.00  0.00    +0.142 HD
ENDBRANCH  10  11
BRANCH  10  13
ATOM     13  CB  SER A   1      -4.002  -1.267  23.670  0.00  0.00    +0.163 C 
BRANCH  13  14
ATOM     14  OG  SER A   1      -4.600  -0.525  24.720  0.00  0.00    -0.380 OA
ATOM     15  H   SER A   1      -4.939  -1.148  25.411  0.00  0.00    +0.211 HD
ENDBRANCH  13  14
ENDBRANCH  10  13
ENDBRANCH   1  10
TORSDOF 5
REMARK  Name = ../refined-set-2016/4rux/4rux_pocket.pdb
REMARK  147 active torsions:
REMARK  status: ('A' for Active; 'I' for Inactive)
REMARK    1  A    between atoms: _1  and  _3
REMARK    2  A    between atoms: _3  and  _4
REMARK    3  A    between atoms: _3  and  _6
REMARK    4  A    between atoms: _6  and  _7
REMARK    5  A    between atoms: _17  and  _19
REMARK    6  A    between atoms: _19  and  _20
REMARK    7  A    between atoms: _19  and  _22
REMARK    8  A    between atoms: _22  and  _23
REMARK    9  A    between atoms: _28  and  _29
REMARK   10  A    between atoms: _31  and  _33
REMARK   11  A    between atoms: _33  and  _34
REMARK   12  A    between atoms: _33  and  _36
REMARK   13  A    between atoms: _36  and  _37
REMARK   14  A    between atoms: _40  and  _41
REMARK   15  A    between atoms: _46  and  _48
REMARK   16  A    between atoms: _48  and  _49
REMARK   17  A    between atoms: _48  and  _51
REMARK   18  A    between atoms: _51  and  _52
REMARK   19  A    between atoms: _57  and  _59
REMARK   20  A    between atoms: _59  and  _60
REMARK   21  A    between atoms: _63  and  _65
REMARK   22  A    between atoms: _65  and  _66
REMARK   23  A    between atoms: _65  and  _68
REMARK   24  A    between atoms: _68  and  _69
REMARK   25  A    between atoms: _74  and  _76
REMARK   26  A    between atoms: _76  and  _77
REMARK   27  A    between atoms: _76  and  _79
REMARK   28  A    between atoms: _79  and  _80
REMARK   29  A    between atoms: _83  and  _85
REMARK   30  A    between atoms: _85  and  _86
REMARK   31  A    between atoms: _85  and  _88
REMARK   32  A    between atoms: _88  and  _89
REMARK   33  A    between atoms: _89  and  _90
REMARK   34  A    between atoms: _95  and  _97
REMARK   35  A    between atoms: _97  and  _98
REMARK   36  A    between atoms: _97  and  _100
REMARK   37  A    between atoms: _100  and  _101
REMARK   38  A    between atoms: _107  and  _109
REMARK   39  A    between atoms: _120  and  _123
REMARK   40  A    between atoms: _123  and  _124
REMARK   41  A    between atoms: _132  and  _133
REMARK   42  A    between atoms: _141  and  _143
REMARK   43  A    between atoms: _143  and  _144
REMARK   44  A    between atoms: _143  and  _146
REMARK   45  A    between atoms: _146  and  _147
REMARK   46  A    between atoms: _147  and  _148
REMARK   47  A    between atoms: _151  and  _153
REMARK   48  A    between atoms: _153  and  _154
REMARK   49  A    between atoms: _153  and  _156
REMARK   50  A    between atoms: _156  and  _157
REMARK   51  A    between atoms: _162  and  _164
REMARK   52  A    between atoms: _164  and  _165
REMARK   53  A    between atoms: _164  and  _167
REMARK   54  A    between atoms: _167  and  _168
REMARK   55  A    between atoms: _168  and  _169
REMARK   56  A    between atoms: _172  and  _174
REMARK   57  A    between atoms: _174  and  _175
REMARK   58  A    between atoms: _174  and  _177
REMARK   59  A    between atoms: _177  and  _178
REMARK   60  A    between atoms: _181  and  _183
REMARK   61  A    between atoms: _183  and  _184
REMARK   62  A    between atoms: _183  and  _186
REMARK   63  A    between atoms: _186  and  _187
REMARK   64  A    between atoms: _188  and  ZN_413
REMARK   65  A    between atoms: _192  and  _194
REMARK   66  A    between atoms: _194  and  _195
REMARK   67  A    between atoms: _194  and  _197
REMARK   68  A    between atoms: _197  and  _198
REMARK   69  A    between atoms: _201  and  _203
REMARK   70  A    between atoms: _203  and  _204
REMARK   71  A    between atoms: _203  and  _206
REMARK   72  A    between atoms: _209  and  _211
REMARK   73  A    between atoms: _211  and  _212
REMARK   74  A    between atoms: _211  and  _214
REMARK   75  A    between atoms: _214  and  _215
REMARK   76  A    between atoms: _220  and  _222
REMARK   77  A    between atoms: _222  and  _223
REMARK   78  A    between atoms: _222  and  _225
REMARK   79  A    between atoms: _225  and  _226
REMARK   80  A    between atoms: _232  and  _234
REMARK   81  A    between atoms: _234  and  _235
REMARK   82  A    between atoms: _237  and  _239
REMARK   83  A    between atoms: _239  and  _240
REMARK   84  A    between atoms: _239  and  _242
REMARK   85  A    between atoms: _245  and  _247
REMARK   86  A    between atoms: _247  and  _248
REMARK   87  A    between atoms: _247  and  _250
REMARK   88  A    between atoms: _250  and  _251
REMARK   89  A    between atoms: _254  and  _256
REMARK   90  A    between atoms: _256  and  _257
REMARK   91  A    between atoms: _260  and  _262
REMARK   92  A    between atoms: _262  and  _263
REMARK   93  A    between atoms: _262  and  _265
REMARK   94  A    between atoms: _268  and  _270
REMARK   95  A    between atoms: _270  and  _271
REMARK   96  A    between atoms: _270  and  _273
REMARK   97  A    between atoms: _273  and  _274
REMARK   98  A    between atoms: _277  and  _279
REMARK   99  A    between atoms: _279  and  _280
REMARK  100  A    between atoms: _282  and  _284
REMARK  101  A    between atoms: _284  and  _285
REMARK  102  A    between atoms: _287  and  _289
REMARK  103  A    between atoms: _289  and  _290
REMARK  104  A    between atoms: _289  and  _292
REMARK  105  A    between atoms: _292  and  _293
REMARK  106  A    between atoms: _295  and  _297
REMARK  107  A    between atoms: _297  and  _298
REMARK  108  A    between atoms: _297  and  _300
REMARK  109  A    between atoms: _300  and  _301
REMARK  110  A    between atoms: _304  and  _306
REMARK  111  A    between atoms: _306  and  _307
REMARK  112  A    between atoms: _306  and  _309
REMARK  113  A    between atoms: _309  and  _310
REMARK  114  A    between atoms: _313  and  _315
REMARK  115  A    between atoms: _315  and  _316
REMARK  116  A    between atoms: _315  and  _318
REMARK  117  A    between atoms: _318  and  _319
REMARK  118  A    between atoms: _323  and  _324
REMARK  119  A    between atoms: _330  and  _331
REMARK  120  A    between atoms: _336  and  _338
REMARK  121  A    between atoms: _338  and  _339
REMARK  122  A    between atoms: _338  and  _341
REMARK  123  A    between atoms: _341  and  _342
REMARK  124  A    between atoms: _345  and  _347
REMARK  125  A    between atoms: _347  and  _348
REMARK  126  A    between atoms: _347  and  _350
REMARK  127  A    between atoms: _350  and  _351
REMARK  128  A    between atoms: _354  and  _356
REMARK  129  A    between atoms: _356  and  _357
REMARK  130  A    between atoms: _356  and  _359
REMARK  131  A    between atoms: _361  and  _363
REMARK  132  A    between atoms: _363  and  _364
REMARK  133  A    between atoms: _363  and  _366
REMARK  134  A    between atoms: _369  and  _371
REMARK  135  A    between atoms: _371  and  _372
REMARK  136  A    between atoms: _371  and  _374
REMARK  137  A    between atoms: _374  and  _375
REMARK  138  A    between atoms: _385  and  _387
REMARK  139  A    between atoms: _387  and  _388
REMARK  140  A    between atoms: _387  and  _390
REMARK  141  A    between atoms: _390  and  _391
REMARK  142  A    between atoms: _396  and  _398
REMARK  143  A    between atoms: _398  and  _399
REMARK  144  A    between atoms: _398  and  _401
REMARK  145  A    between atoms: _401  and  _402
REMARK  146  A    between atoms: _402  and  _403
REMARK  147  A    between atoms: _403  and  _404
REMARK                            x       y       z     vdW  Elec       q    Type
REMARK                         _______ _______ _______ _____ _____    ______ ____
ROOT
ATOM      1  CB  ASN A   1      -2.661   2.192   5.290  0.00  0.00    +0.110 C 
ENDROOT
BRANCH   1   2
ATOM      2  CG  ASN A   1      -3.021   1.339   6.483  0.00  0.00    +0.221 C 
ATOM      3  ND2 ASN A   1      -3.742   1.929   7.424  0.00  0.00    -0.329 N 
ATOM      4 HD21 ASN A   1      -4.027   1.397   8.271  0.00  0.00    +0.145 HD
ATOM      5 HD22 ASN A   1      -4.024   2.924   7.316  0.00  0.00    +0.145 HD
ATOM      6  OD1 ASN A   1      -2.662   0.161   6.564  0.00  0.00    -0.275 OA
ENDBRANCH   1   2
BRANCH   1   7
ATOM      7  CA  ASN A   1      -2.296   1.360   4.055  0.00  0.00    +0.142 C 
BRANCH   7   8
ATOM      8  N   ASN A   1      -3.425   0.551   3.612  0.00  0.00    -0.239 NA
ATOM      9  H   ASN A   1      -3.995   0.035   4.312  0.00  0.00    +0.142 HD
ENDBRANCH   7   8
BRANCH   7  10
ATOM     10  C   ASN A   1      -1.026   0.548   4.309  0.00  0.00    +0.225 C 
ATOM     11  O   ASN A   1      -0.051   1.072   4.862  0.00  0.00    -0.287 OA
ENDBRANCH   7  10
ENDBRANCH   1   7
TORSDOF 4
REMARK  Name = ../refined-set-2016/4rux/4rux_pocket.pdb
REMARK  147 active torsions:
REMARK  status: ('A' for Active; 'I' for Inactive)
REMARK    1  A    between atoms: _1  and  _3
REMARK    2  A    between atoms: _3  and  _4
REMARK    3  A    between atoms: _3  and  _6
REMARK    4  A    between atoms: _6  and  _7
REMARK    5  A    between atoms: _17  and  _19
REMARK    6  A    between atoms: _19  and  _20
REMARK    7  A    between atoms: _19  and  _22
REMARK    8  A    between atoms: _22  and  _23
REMARK    9  A    between atoms: _28  and  _29
REMARK   10  A    between atoms: _31  and  _33
REMARK   11  A    between atoms: _33  and  _34
REMARK   12  A    between atoms: _33  and  _36
REMARK   13  A    between atoms: _36  and  _37
REMARK   14  A    between atoms: _40  and  _41
REMARK   15  A    between atoms: _46  and  _48
REMARK   16  A    between atoms: _48  and  _49
REMARK   17  A    between atoms: _48  and  _51
REMARK   18  A    between atoms: _51  and  _52
REMARK   19  A    between atoms: _57  and  _59
REMARK   20  A    between atoms: _59  and  _60
REMARK   21  A    between atoms: _63  and  _65
REMARK   22  A    between atoms: _65  and  _66
REMARK   23  A    between atoms: _65  and  _68
REMARK   24  A    between atoms: _68  and  _69
REMARK   25  A    between atoms: _74  and  _76
REMARK   26  A    between atoms: _76  and  _77
REMARK   27  A    between atoms: _76  and  _79
REMARK   28  A    between atoms: _79  and  _80
REMARK   29  A    between atoms: _83  and  _85
REMARK   30  A    between atoms: _85  and  _86
REMARK   31  A    between atoms: _85  and  _88
REMARK   32  A    between atoms: _88  and  _89
REMARK   33  A    between atoms: _89  and  _90
REMARK   34  A    between atoms: _95  and  _97
REMARK   35  A    between atoms: _97  and  _98
REMARK   36  A    between atoms: _97  and  _100
REMARK   37  A    between atoms: _100  and  _101
REMARK   38  A    between atoms: _107  and  _109
REMARK   39  A    between atoms: _120  and  _123
REMARK   40  A    between atoms: _123  and  _124
REMARK   41  A    between atoms: _132  and  _133
REMARK   42  A    between atoms: _141  and  _143
REMARK   43  A    between atoms: _143  and  _144
REMARK   44  A    between atoms: _143  and  _146
REMARK   45  A    between atoms: _146  and  _147
REMARK   46  A    between atoms: _147  and  _148
REMARK   47  A    between atoms: _151  and  _153
REMARK   48  A    between atoms: _153  and  _154
REMARK   49  A    between atoms: _153  and  _156
REMARK   50  A    between atoms: _156  and  _157
REMARK   51  A    between atoms: _162  and  _164
REMARK   52  A    between atoms: _164  and  _165
REMARK   53  A    between atoms: _164  and  _167
REMARK   54  A    between atoms: _167  and  _168
REMARK   55  A    between atoms: _168  and  _169
REMARK   56  A    between atoms: _172  and  _174
REMARK   57  A    between atoms: _174  and  _175
REMARK   58  A    between atoms: _174  and  _177
REMARK   59  A    between atoms: _177  and  _178
REMARK   60  A    between atoms: _181  and  _183
REMARK   61  A    between atoms: _183  and  _184
REMARK   62  A    between atoms: _183  and  _186
REMARK   63  A    between atoms: _186  and  _187
REMARK   64  A    between atoms: _188  and  ZN_413
REMARK   65  A    between atoms: _192  and  _194
REMARK   66  A    between atoms: _194  and  _195
REMARK   67  A    between atoms: _194  and  _197
REMARK   68  A    between atoms: _197  and  _198
REMARK   69  A    between atoms: _201  and  _203
REMARK   70  A    between atoms: _203  and  _204
REMARK   71  A    between atoms: _203  and  _206
REMARK   72  A    between atoms: _209  and  _211
REMARK   73  A    between atoms: _211  and  _212
REMARK   74  A    between atoms: _211  and  _214
REMARK   75  A    between atoms: _214  and  _215
REMARK   76  A    between atoms: _220  and  _222
REMARK   77  A    between atoms: _222  and  _223
REMARK   78  A    between atoms: _222  and  _225
REMARK   79  A    between atoms: _225  and  _226
REMARK   80  A    between atoms: _232  and  _234
REMARK   81  A    between atoms: _234  and  _235
REMARK   82  A    between atoms: _237  and  _239
REMARK   83  A    between atoms: _239  and  _240
REMARK   84  A    between atoms: _239  and  _242
REMARK   85  A    between atoms: _245  and  _247
REMARK   86  A    between atoms: _247  and  _248
REMARK   87  A    between atoms: _247  and  _250
REMARK   88  A    between atoms: _250  and  _251
REMARK   89  A    between atoms: _254  and  _256
REMARK   90  A    between atoms: _256  and  _257
REMARK   91  A    between atoms: _260  and  _262
REMARK   92  A    between atoms: _262  and  _263
REMARK   93  A    between atoms: _262  and  _265
REMARK   94  A    between atoms: _268  and  _270
REMARK   95  A    between atoms: _270  and  _271
REMARK   96  A    between atoms: _270  and  _273
REMARK   97  A    between atoms: _273  and  _274
REMARK   98  A    between atoms: _277  and  _279
REMARK   99  A    between atoms: _279  and  _280
REMARK  100  A    between atoms: _282  and  _284
REMARK  101  A    between atoms: _284  and  _285
REMARK  102  A    between atoms: _287  and  _289
REMARK  103  A    between atoms: _289  and  _290
REMARK  104  A    between atoms: _289  and  _292
REMARK  105  A    between atoms: _292  and  _293
REMARK  106  A    between atoms: _295  and  _297
REMARK  107  A    between atoms: _297  and  _298
REMARK  108  A    between atoms: _297  and  _300
REMARK  109  A    between atoms: _300  and  _301
REMARK  110  A    between atoms: _304  and  _306
REMARK  111  A    between atoms: _306  and  _307
REMARK  112  A    between atoms: _306  and  _309
REMARK  113  A    between atoms: _309  and  _310
REMARK  114  A    between atoms: _313  and  _315
REMARK  115  A    between atoms: _315  and  _316
REMARK  116  A    between atoms: _315  and  _318
REMARK  117  A    between atoms: _318  and  _319
REMARK  118  A    between atoms: _323  and  _324
REMARK  119  A    between atoms: _330  and  _331
REMARK  120  A    between atoms: _336  and  _338
REMARK  121  A    between atoms: _338  and  _339
REMARK  122  A    between atoms: _338  and  _341
REMARK  123  A    between atoms: _341  and  _342
REMARK  124  A    between atoms: _345  and  _347
REMARK  125  A    between atoms: _347  and  _348
REMARK  126  A    between atoms: _347  and  _350
REMARK  127  A    between atoms: _350  and  _351
REMARK  128  A    between atoms: _354  and  _356
REMARK  129  A    between atoms: _356  and  _357
REMARK  130  A    between atoms: _356  and  _359
REMARK  131  A    between atoms: _361  and  _363
REMARK  132  A    between atoms: _363  and  _364
REMARK  133  A    between atoms: _363  and  _366
REMARK  134  A    between atoms: _369  and  _371
REMARK  135  A    between atoms: _371  and  _372
REMARK  136  A    between atoms: _371  and  _374
REMARK  137  A    between atoms: _374  and  _375
REMARK  138  A    between atoms: _385  and  _387
REMARK  139  A    between atoms: _387  and  _388
REMARK  140  A    between atoms: _387  and  _390
REMARK  141  A    between atoms: _390  and  _391
REMARK  142  A    between atoms: _396  and  _398
REMARK  143  A    between atoms: _398  and  _399
REMARK  144  A    between atoms: _398  and  _401
REMARK  145  A    between atoms: _401  and  _402
REMARK  146  A    between atoms: _402  and  _403
REMARK  147  A    between atoms: _403  and  _404
REMARK                            x       y       z     vdW  Elec       q    Type
REMARK                         _______ _______ _______ _____ _____    ______ ____
ROOT
ATOM      1  CA  ALA A   1      -4.659  -3.087   7.305  0.00  0.00    +0.133 C 
ATOM      2  CB  ALA A   1      -5.301  -2.806   8.668  0.00  0.00    +0.027 C 
ENDROOT
BRANCH   1   3
ATOM      3  N   ALA A   1      -3.283  -2.615   7.266  0.00  0.00    -0.239 NA
ATOM      4  H   ALA A   1      -3.087  -1.741   6.737  0.00  0.00    +0.142 HD
ENDBRANCH   1   3
BRANCH   1   5
ATOM      5  C   ALA A   1      -5.377  -2.339   6.185  0.00  0.00    +0.224 C 
ATOM      6  O   ALA A   1      -4.724  -1.695   5.358  0.00  0.00    -0.287 OA
ENDBRANCH   1   5
TORSDOF 2
REMARK  Name = ../refined-set-2016/4rux/4rux_pocket.pdb
REMARK  147 active torsions:
REMARK  status: ('A' for Active; 'I' for Inactive)
REMARK    1  A    between atoms: _1  and  _3
REMARK    2  A    between atoms: _3  and  _4
REMARK    3  A    between atoms: _3  and  _6
REMARK    4  A    between atoms: _6  and  _7
REMARK    5  A    between atoms: _17  and  _19
REMARK    6  A    between atoms: _19  and  _20
REMARK    7  A    between atoms: _19  and  _22
REMARK    8  A    between atoms: _22  and  _23
REMARK    9  A    between atoms: _28  and  _29
REMARK   10  A    between atoms: _31  and  _33
REMARK   11  A    between atoms: _33  and  _34
REMARK   12  A    between atoms: _33  and  _36
REMARK   13  A    between atoms: _36  and  _37
REMARK   14  A    between atoms: _40  and  _41
REMARK   15  A    between atoms: _46  and  _48
REMARK   16  A    between atoms: _48  and  _49
REMARK   17  A    between atoms: _48  and  _51
REMARK   18  A    between atoms: _51  and  _52
REMARK   19  A    between atoms: _57  and  _59
REMARK   20  A    between atoms: _59  and  _60
REMARK   21  A    between atoms: _63  and  _65
REMARK   22  A    between atoms: _65  and  _66
REMARK   23  A    between atoms: _65  and  _68
REMARK   24  A    between atoms: _68  and  _69
REMARK   25  A    between atoms: _74  and  _76
REMARK   26  A    between atoms: _76  and  _77
REMARK   27  A    between atoms: _76  and  _79
REMARK   28  A    between atoms: _79  and  _80
REMARK   29  A    between atoms: _83  and  _85
REMARK   30  A    between atoms: _85  and  _86
REMARK   31  A    between atoms: _85  and  _88
REMARK   32  A    between atoms: _88  and  _89
REMARK   33  A    between atoms: _89  and  _90
REMARK   34  A    between atoms: _95  and  _97
REMARK   35  A    between atoms: _97  and  _98
REMARK   36  A    between atoms: _97  and  _100
REMARK   37  A    between atoms: _100  and  _101
REMARK   38  A    between atoms: _107  and  _109
REMARK   39  A    between atoms: _120  and  _123
REMARK   40  A    between atoms: _123  and  _124
REMARK   41  A    between atoms: _132  and  _133
REMARK   42  A    between atoms: _141  and  _143
REMARK   43  A    between atoms: _143  and  _144
REMARK   44  A    between atoms: _143  and  _146
REMARK   45  A    between atoms: _146  and  _147
REMARK   46  A    between atoms: _147  and  _148
REMARK   47  A    between atoms: _151  and  _153
REMARK   48  A    between atoms: _153  and  _154
REMARK   49  A    between atoms: _153  and  _156
REMARK   50  A    between atoms: _156  and  _157
REMARK   51  A    between atoms: _162  and  _164
REMARK   52  A    between atoms: _164  and  _165
REMARK   53  A    between atoms: _164  and  _167
REMARK   54  A    between atoms: _167  and  _168
REMARK   55  A    between atoms: _168  and  _169
REMARK   56  A    between atoms: _172  and  _174
REMARK   57  A    between atoms: _174  and  _175
REMARK   58  A    between atoms: _174  and  _177
REMARK   59  A    between atoms: _177  and  _178
REMARK   60  A    between atoms: _181  and  _183
REMARK   61  A    between atoms: _183  and  _184
REMARK   62  A    between atoms: _183  and  _186
REMARK   63  A    between atoms: _186  and  _187
REMARK   64  A    between atoms: _188  and  ZN_413
REMARK   65  A    between atoms: _192  and  _194
REMARK   66  A    between atoms: _194  and  _195
REMARK   67  A    between atoms: _194  and  _197
REMARK   68  A    between atoms: _197  and  _198
REMARK   69  A    between atoms: _201  and  _203
REMARK   70  A    between atoms: _203  and  _204
REMARK   71  A    between atoms: _203  and  _206
REMARK   72  A    between atoms: _209  and  _211
REMARK   73  A    between atoms: _211  and  _212
REMARK   74  A    between atoms: _211  and  _214
REMARK   75  A    between atoms: _214  and  _215
REMARK   76  A    between atoms: _220  and  _222
REMARK   77  A    between atoms: _222  and  _223
REMARK   78  A    between atoms: _222  and  _225
REMARK   79  A    between atoms: _225  and  _226
REMARK   80  A    between atoms: _232  and  _234
REMARK   81  A    between atoms: _234  and  _235
REMARK   82  A    between atoms: _237  and  _239
REMARK   83  A    between atoms: _239  and  _240
REMARK   84  A    between atoms: _239  and  _242
REMARK   85  A    between atoms: _245  and  _247
REMARK   86  A    between atoms: _247  and  _248
REMARK   87  A    between atoms: _247  and  _250
REMARK   88  A    between atoms: _250  and  _251
REMARK   89  A    between atoms: _254  and  _256
REMARK   90  A    between atoms: _256  and  _257
REMARK   91  A    between atoms: _260  and  _262
REMARK   92  A    between atoms: _262  and  _263
REMARK   93  A    between atoms: _262  and  _265
REMARK   94  A    between atoms: _268  and  _270
REMARK   95  A    between atoms: _270  and  _271
REMARK   96  A    between atoms: _270  and  _273
REMARK   97  A    between atoms: _273  and  _274
REMARK   98  A    between atoms: _277  and  _279
REMARK   99  A    between atoms: _279  and  _280
REMARK  100  A    between atoms: _282  and  _284
REMARK  101  A    between atoms: _284  and  _285
REMARK  102  A    between atoms: _287  and  _289
REMARK  103  A    between atoms: _289  and  _290
REMARK  104  A    between atoms: _289  and  _292
REMARK  105  A    between atoms: _292  and  _293
REMARK  106  A    between atoms: _295  and  _297
REMARK  107  A    between atoms: _297  and  _298
REMARK  108  A    between atoms: _297  and  _300
REMARK  109  A    between atoms: _300  and  _301
REMARK  110  A    between atoms: _304  and  _306
REMARK  111  A    between atoms: _306  and  _307
REMARK  112  A    between atoms: _306  and  _309
REMARK  113  A    between atoms: _309  and  _310
REMARK  114  A    between atoms: _313  and  _315
REMARK  115  A    between atoms: _315  and  _316
REMARK  116  A    between atoms: _315  and  _318
REMARK  117  A    between atoms: _318  and  _319
REMARK  118  A    between atoms: _323  and  _324
REMARK  119  A    between atoms: _330  and  _331
REMARK  120  A    between atoms: _336  and  _338
REMARK  121  A    between atoms: _338  and  _339
REMARK  122  A    between atoms: _338  and  _341
REMARK  123  A    between atoms: _341  and  _342
REMARK  124  A    between atoms: _345  and  _347
REMARK  125  A    between atoms: _347  and  _348
REMARK  126  A    between atoms: _347  and  _350
REMARK  127  A    between atoms: _350  and  _351
REMARK  128  A    between atoms: _354  and  _356
REMARK  129  A    between atoms: _356  and  _357
REMARK  130  A    between atoms: _356  and  _359
REMARK  131  A    between atoms: _361  and  _363
REMARK  132  A    between atoms: _363  and  _364
REMARK  133  A    between atoms: _363  and  _366
REMARK  134  A    between atoms: _369  and  _371
REMARK  135  A    between atoms: _371  and  _372
REMARK  136  A    between atoms: _371  and  _374
REMARK  137  A    between atoms: _374  and  _375
REMARK  138  A    between atoms: _385  and  _387
REMARK  139  A    between atoms: _387  and  _388
REMARK  140  A    between atoms: _387  and  _390
REMARK  141  A    between atoms: _390  and  _391
REMARK  142  A    between atoms: _396  and  _398
REMARK  143  A    between atoms: _398  and  _399
REMARK  144  A    between atoms: _398  and  _401
REMARK  145  A    between atoms: _401  and  _402
REMARK  146  A    between atoms: _402  and  _403
REMARK  147  A    between atoms: _403  and  _404
REMARK                            x       y       z     vdW  Elec       q    Type
REMARK                         _______ _______ _______ _____ _____    ______ ____
ROOT
ATOM      1  CB  ASN A   1      -8.595   2.803   6.959  0.00  0.00    +0.110 C 
ENDROOT
BRANCH   1   2
ATOM      2  CG  ASN A   1      -7.535   2.569   8.004  0.00  0.00    +0.221 C 
ATOM      3  OD1 ASN A   1      -7.459   1.503   8.594  0.00  0.00    -0.275 OA
ATOM      4  ND2 ASN A   1      -6.728   3.588   8.266  0.00  0.00    -0.329 N 
ATOM      5 HD21 ASN A   1      -5.995   3.496   8.999  0.00  0.00    +0.145 HD
ATOM      6 HD22 ASN A   1      -6.828   4.479   7.739  0.00  0.00    +0.145 HD
ENDBRANCH   1   2
BRANCH   1   7
ATOM      7  CA  ASN A   1      -9.330   1.523   6.556  0.00  0.00    +0.142 C 
BRANCH   7   8
ATOM      8  N   ASN A   1      -8.461   0.608   5.832  0.00  0.00    -0.239 NA
ATOM      9  H   ASN A   1      -7.884   0.970   5.046  0.00  0.00    +0.142 HD
ENDBRANCH   7   8
BRANCH   7  10
ATOM     10  C   ASN A   1     -10.510   1.942   5.702  0.00  0.00    +0.225 C 
ATOM     11  O   ASN A   1     -10.333   2.382   4.564  0.00  0.00    -0.287 OA
ENDBRANCH   7  10
ENDBRANCH   1   7
TORSDOF 4
REMARK  Name = ../refined-set-2016/4rux/4rux_pocket.pdb
REMARK  147 active torsions:
REMARK  status: ('A' for Active; 'I' for Inactive)
REMARK    1  A    between atoms: _1  and  _3
REMARK    2  A    between atoms: _3  and  _4
REMARK    3  A    between atoms: _3  and  _6
REMARK    4  A    between atoms: _6  and  _7
REMARK    5  A    between atoms: _17  and  _19
REMARK    6  A    between atoms: _19  and  _20
REMARK    7  A    between atoms: _19  and  _22
REMARK    8  A    between atoms: _22  and  _23
REMARK    9  A    between atoms: _28  and  _29
REMARK   10  A    between atoms: _31  and  _33
REMARK   11  A    between atoms: _33  and  _34
REMARK   12  A    between atoms: _33  and  _36
REMARK   13  A    between atoms: _36  and  _37
REMARK   14  A    between atoms: _40  and  _41
REMARK   15  A    between atoms: _46  and  _48
REMARK   16  A    between atoms: _48  and  _49
REMARK   17  A    between atoms: _48  and  _51
REMARK   18  A    between atoms: _51  and  _52
REMARK   19  A    between atoms: _57  and  _59
REMARK   20  A    between atoms: _59  and  _60
REMARK   21  A    between atoms: _63  and  _65
REMARK   22  A    between atoms: _65  and  _66
REMARK   23  A    between atoms: _65  and  _68
REMARK   24  A    between atoms: _68  and  _69
REMARK   25  A    between atoms: _74  and  _76
REMARK   26  A    between atoms: _76  and  _77
REMARK   27  A    between atoms: _76  and  _79
REMARK   28  A    between atoms: _79  and  _80
REMARK   29  A    between atoms: _83  and  _85
REMARK   30  A    between atoms: _85  and  _86
REMARK   31  A    between atoms: _85  and  _88
REMARK   32  A    between atoms: _88  and  _89
REMARK   33  A    between atoms: _89  and  _90
REMARK   34  A    between atoms: _95  and  _97
REMARK   35  A    between atoms: _97  and  _98
REMARK   36  A    between atoms: _97  and  _100
REMARK   37  A    between atoms: _100  and  _101
REMARK   38  A    between atoms: _107  and  _109
REMARK   39  A    between atoms: _120  and  _123
REMARK   40  A    between atoms: _123  and  _124
REMARK   41  A    between atoms: _132  and  _133
REMARK   42  A    between atoms: _141  and  _143
REMARK   43  A    between atoms: _143  and  _144
REMARK   44  A    between atoms: _143  and  _146
REMARK   45  A    between atoms: _146  and  _147
REMARK   46  A    between atoms: _147  and  _148
REMARK   47  A    between atoms: _151  and  _153
REMARK   48  A    between atoms: _153  and  _154
REMARK   49  A    between atoms: _153  and  _156
REMARK   50  A    between atoms: _156  and  _157
REMARK   51  A    between atoms: _162  and  _164
REMARK   52  A    between atoms: _164  and  _165
REMARK   53  A    between atoms: _164  and  _167
REMARK   54  A    between atoms: _167  and  _168
REMARK   55  A    between atoms: _168  and  _169
REMARK   56  A    between atoms: _172  and  _174
REMARK   57  A    between atoms: _174  and  _175
REMARK   58  A    between atoms: _174  and  _177
REMARK   59  A    between atoms: _177  and  _178
REMARK   60  A    between atoms: _181  and  _183
REMARK   61  A    between atoms: _183  and  _184
REMARK   62  A    between atoms: _183  and  _186
REMARK   63  A    between atoms: _186  and  _187
REMARK   64  A    between atoms: _188  and  ZN_413
REMARK   65  A    between atoms: _192  and  _194
REMARK   66  A    between atoms: _194  and  _195
REMARK   67  A    between atoms: _194  and  _197
REMARK   68  A    between atoms: _197  and  _198
REMARK   69  A    between atoms: _201  and  _203
REMARK   70  A    between atoms: _203  and  _204
REMARK   71  A    between atoms: _203  and  _206
REMARK   72  A    between atoms: _209  and  _211
REMARK   73  A    between atoms: _211  and  _212
REMARK   74  A    between atoms: _211  and  _214
REMARK   75  A    between atoms: _214  and  _215
REMARK   76  A    between atoms: _220  and  _222
REMARK   77  A    between atoms: _222  and  _223
REMARK   78  A    between atoms: _222  and  _225
REMARK   79  A    between atoms: _225  and  _226
REMARK   80  A    between atoms: _232  and  _234
REMARK   81  A    between atoms: _234  and  _235
REMARK   82  A    between atoms: _237  and  _239
REMARK   83  A    between atoms: _239  and  _240
REMARK   84  A    between atoms: _239  and  _242
REMARK   85  A    between atoms: _245  and  _247
REMARK   86  A    between atoms: _247  and  _248
REMARK   87  A    between atoms: _247  and  _250
REMARK   88  A    between atoms: _250  and  _251
REMARK   89  A    between atoms: _254  and  _256
REMARK   90  A    between atoms: _256  and  _257
REMARK   91  A    between atoms: _260  and  _262
REMARK   92  A    between atoms: _262  and  _263
REMARK   93  A    between atoms: _262  and  _265
REMARK   94  A    between atoms: _268  and  _270
REMARK   95  A    between atoms: _270  and  _271
REMARK   96  A    between atoms: _270  and  _273
REMARK   97  A    between atoms: _273  and  _274
REMARK   98  A    between atoms: _277  and  _279
REMARK   99  A    between atoms: _279  and  _280
REMARK  100  A    between atoms: _282  and  _284
REMARK  101  A    between atoms: _284  and  _285
REMARK  102  A    between atoms: _287  and  _289
REMARK  103  A    between atoms: _289  and  _290
REMARK  104  A    between atoms: _289  and  _292
REMARK  105  A    between atoms: _292  and  _293
REMARK  106  A    between atoms: _295  and  _297
REMARK  107  A    between atoms: _297  and  _298
REMARK  108  A    between atoms: _297  and  _300
REMARK  109  A    between atoms: _300  and  _301
REMARK  110  A    between atoms: _304  and  _306
REMARK  111  A    between atoms: _306  and  _307
REMARK  112  A    between atoms: _306  and  _309
REMARK  113  A    between atoms: _309  and  _310
REMARK  114  A    between atoms: _313  and  _315
REMARK  115  A    between atoms: _315  and  _316
REMARK  116  A    between atoms: _315  and  _318
REMARK  117  A    between atoms: _318  and  _319
REMARK  118  A    between atoms: _323  and  _324
REMARK  119  A    between atoms: _330  and  _331
REMARK  120  A    between atoms: _336  and  _338
REMARK  121  A    between atoms: _338  and  _339
REMARK  122  A    between atoms: _338  and  _341
REMARK  123  A    between atoms: _341  and  _342
REMARK  124  A    between atoms: _345  and  _347
REMARK  125  A    between atoms: _347  and  _348
REMARK  126  A    between atoms: _347  and  _350
REMARK  127  A    between atoms: _350  and  _351
REMARK  128  A    between atoms: _354  and  _356
REMARK  129  A    between atoms: _356  and  _357
REMARK  130  A    between atoms: _356  and  _359
REMARK  131  A    between atoms: _361  and  _363
REMARK  132  A    between atoms: _363  and  _364
REMARK  133  A    between atoms: _363  and  _366
REMARK  134  A    between atoms: _369  and  _371
REMARK  135  A    between atoms: _371  and  _372
REMARK  136  A    between atoms: _371  and  _374
REMARK  137  A    between atoms: _374  and  _375
REMARK  138  A    between atoms: _385  and  _387
REMARK  139  A    between atoms: _387  and  _388
REMARK  140  A    between atoms: _387  and  _390
REMARK  141  A    between atoms: _390  and  _391
REMARK  142  A    between atoms: _396  and  _398
REMARK  143  A    between atoms: _398  and  _399
REMARK  144  A    between atoms: _398  and  _401
REMARK  145  A    between atoms: _401  and  _402
REMARK  146  A    between atoms: _402  and  _403
REMARK  147  A    between atoms: _403  and  _404
REMARK                            x       y       z     vdW  Elec       q    Type
REMARK                         _______ _______ _______ _____ _____    ______ ____
ROOT
ATOM      1  C   UNK A   4     -10.363  -1.350  10.188  0.00  0.00    +0.000 C 
ATOM      2  C   UNK A   4     -10.421  -2.625  11.024  0.00  0.00    +0.000 C 
ATOM      3  O   UNK A   4     -11.058  -2.659  12.084  0.00  0.00    +0.000 OA
ATOM      4  N   VAL A   5      -9.731  -3.657  10.554  0.00  0.00    +0.000 N 
ATOM      5  CA  VAL A   5      -9.677  -4.939  11.233  0.00  0.00    +0.000 C 
ATOM      6  C   VAL A   5      -8.233  -5.378  11.419  0.00  0.00    +0.000 C 
ATOM      7  N   UNK A   6      -8.064  -6.324  12.338  0.00  0.00    +0.000 N 
ATOM      8  H   UNK A   6      -8.847  -6.512  12.996  0.00  0.00    +0.000 HD
ATOM      9  C   UNK A   6      -6.844  -7.116  12.479  0.00  0.00    +0.000 C 
ATOM     10  C   UNK A   6      -6.172  -6.859  13.826  0.00  0.00    +0.000 C 
ATOM     11  C   UNK A   6      -5.898  -5.410  14.081  0.00  0.00    +0.000 A 
ATOM     12  C   UNK A   6      -6.712  -4.412  14.506  0.00  0.00    +0.000 A 
ATOM     13  N   UNK A   6      -5.969  -3.258  14.531  0.00  0.00    +0.000 N 
ATOM     14 ZN   UNK A   6      -6.740  -1.496  15.193  0.00  0.00    +0.000 Zn
ATOM     15  N   UNK A   4      -7.493  -0.663  13.514  0.00  0.00    +0.000 N 
ATOM     16  C   UNK A   4      -7.990   0.554  13.360  0.00  0.00    +0.000 A 
ATOM     17  N   UNK A   4      -8.540   0.639  12.159  0.00  0.00    +0.000 NA
ATOM     18  C   UNK A   4      -8.380  -0.563  11.506  0.00  0.00    +0.000 A 
ATOM     19  C   UNK A   4      -7.723  -1.377  12.366  0.00  0.00    +0.000 A 
ATOM     20  C   UNK A   6      -4.740  -3.539  14.139  0.00  0.00    +0.000 A 
ATOM     21  N   UNK A   6      -4.671  -4.831  13.847  0.00  0.00    +0.000 NA
ATOM     22  O   VAL A   5      -7.319  -4.909  10.734  0.00  0.00    +0.000 OA
ATOM     23  H   VAL A   5      -9.208  -3.542   9.663  0.00  0.00    +0.000 HD
ATOM     24  C   UNK A   4      -8.937  -0.822  10.146  0.00  0.00    +0.000 C 
ENDROOT
BRANCH  14  25
ATOM     25  N   UNK A   6      -8.200  -2.225  16.415  0.00  0.00    +0.000 N 
ATOM     26  C   UNK A   6      -7.892  -3.137  17.321  0.00  0.00    +0.000 A 
ATOM     27  N   UNK A   6      -9.001  -3.523  17.930  0.00  0.00    +0.000 NA
ATOM     28  C   UNK A   6     -10.061  -2.841  17.400  0.00  0.00    +0.000 A 
ATOM     29  C   UNK A   6      -9.565  -2.013  16.454  0.00  0.00    +0.000 A 
BRANCH  29  30
ATOM     30  C   UNK A   6     -10.280  -1.059  15.566  0.00  0.00    +0.000 C 
BRANCH  30  31
ATOM     31  C   UNK A   6     -11.776  -1.341  15.486  0.00  0.00    +0.000 C 
BRANCH  31  32
ATOM     32  C   UNK A   6     -12.471  -0.182  14.805  0.00  0.00    +0.000 C 
ATOM     33  N   UNK A   4     -13.474   0.387  15.472  0.00  0.00    +0.000 N 
ATOM     34  H   UNK A   4     -13.808  -0.066  16.346  0.00  0.00    +0.000 HD
ATOM     35  O   UNK A   6     -12.101   0.197  13.692  0.00  0.00    +0.000 OA
BRANCH  33  36
ATOM     36  C   UNK A   4     -14.126   1.617  15.033  0.00  0.00    +0.000 C 
BRANCH  36  37
ATOM     37  C   UNK A   4     -13.494   2.754  15.822  0.00  0.00    +0.000 C 
ATOM     38  O   UNK A   4     -13.620   2.815  17.049  0.00  0.00    +0.000 OA
ATOM     39  N   VAL A   5     -12.777   3.622  15.115  0.00  0.00    +0.000 N 
ATOM     40  H   VAL A   5     -12.833   3.582  14.077  0.00  0.00    +0.000 HD
BRANCH  39  41
ATOM     41  CA  VAL A   5     -11.916   4.628  15.726  0.00  0.00    +0.000 C 
BRANCH  41  42
ATOM     42  C   VAL A   5     -12.608   5.978  15.751  0.00  0.00    +0.000 C 
ATOM     43  N   UNK A   6     -12.682   6.584  16.935  0.00  0.00    +0.000 N 
ATOM     44  H   UNK A   6     -12.231   6.134  17.757  0.00  0.00    +0.000 HD
ATOM     45  O   VAL A   5     -13.064   6.464  14.714  0.00  0.00    +0.000 OA
BRANCH  43  46
ATOM     46  C   UNK A   6     -13.374   7.859  17.120  0.00  0.00    +0.000 C 
BRANCH  46  47
ATOM     47  C   UNK A   6     -12.469   8.825  17.859  0.00  0.00    +0.000 C 
ATOM     48  O   UNK A   6     -11.726   8.412  18.749  0.00  0.00    +0.000 OA
ENDBRANCH  46  47
BRANCH  46  49
ATOM     49  C   UNK A   6     -14.645   7.686  17.972  0.00  0.00    +0.000 C 
BRANCH  49  50
ATOM     50  C   UNK A   6     -15.541   6.554  17.562  0.00  0.00    +0.000 A 
ATOM     51  N   UNK A   6     -15.237   5.235  17.817  0.00  0.00    +0.000 NA
ATOM     52  C   UNK A   6     -16.224   4.468  17.383  0.00  0.00    +0.000 A 
ATOM     53  N   UNK A   6     -17.155   5.234  16.846  0.00  0.00    +0.000 NA
ATOM     54  C   UNK A   6     -16.755   6.545  16.954  0.00  0.00    +0.000 A 
ENDBRANCH  49  50
ENDBRANCH  46  49
ENDBRANCH  43  46
ENDBRANCH  41  42
BRANCH  41  55
ATOM     55  CB  VAL A   5     -10.602   4.744  14.924  0.00  0.00    +0.000 C 
ATOM     56  CG2 VAL A   5      -9.664   5.770  15.560  0.00  0.00    +0.000 C 
ATOM     57  CG1 VAL A   5      -9.918   3.382  14.790  0.00  0.00    +0.000 C 
ENDBRANCH  41  55
ENDBRANCH  39  41
ENDBRANCH  36  37
BRANCH  36  58
ATOM     58  C   UNK A   4     -15.635   1.533  15.260  0.00  0.00    +0.000 C 
BRANCH  58  59
ATOM     59  C   UNK A   4     -16.327   0.465  14.401  0.00  0.00    +0.000 C 
ATOM     60  C   UNK A   4     -17.167  -0.472  15.243  0.00  0.00    +0.000 C 
ATOM     61  C   UNK A   4     -17.181   1.107  13.316  0.00  0.00    +0.000 C 
ENDBRANCH  58  59
ENDBRANCH  36  58
ENDBRANCH  33  36
ENDBRANCH  31  32
BRANCH  31  62
ATOM     62  N   UNK A   6     -12.019  -2.567  14.739  0.00  0.00    +0.000 N 
ATOM     63  C   LEU A   2     -12.642  -3.629  15.243  0.00  0.00    +0.000 C 
ATOM     64  O   LEU A   2     -13.024  -3.709  16.412  0.00  0.00    +0.000 OA
ATOM     65  H   UNK A   6     -11.686  -2.615  13.755  0.00  0.00    +0.000 HD
BRANCH  63  66
ATOM     66  CA  LEU A   2     -12.870  -4.778  14.273  0.00  0.00    +0.000 C 
BRANCH  66  67
ATOM     67  N   LEU A   2     -12.482  -6.023  14.916  0.00  0.00    +0.000 N 
ATOM     68  H   LEU A   2     -13.190  -6.504  15.507  0.00  0.00    +0.000 HD
ATOM     69  C   GLU A   1     -11.283  -6.590  14.801  0.00  0.00    +0.000 C 
ATOM     70  O   GLU A   1     -10.374  -6.162  14.080  0.00  0.00    +0.000 OA
BRANCH  69  71
ATOM     71  CA  GLU A   1     -11.077  -7.860  15.618  0.00  0.00    +0.000 C 
BRANCH  71  72
ATOM     72  N   GLU A   1     -10.568  -8.889  14.732  0.00  0.00    +0.000 NA
ATOM     73  H   GLU A   1      -9.941  -8.615  13.949  0.00  0.00    +0.000 HD
ENDBRANCH  71  72
BRANCH  71  74
ATOM     74  CB  GLU A   1     -10.100  -7.629  16.776  0.00  0.00    +0.000 C 
BRANCH  74  75
ATOM     75  CG  GLU A   1     -10.587  -6.650  17.831  0.00  0.00    +0.000 C 
BRANCH  75  76
ATOM     76  CD  GLU A   1      -9.664  -6.582  19.036  0.00  0.00    +0.000 C 
ATOM     77  OE2 GLU A   1      -9.610  -5.508  19.677  0.00  0.00    +0.000 OA
ATOM     78  OE1 GLU A   1      -8.996  -7.596  19.337  0.00  0.00    +0.000 OA
ENDBRANCH  75  76
ENDBRANCH  74  75
ENDBRANCH  71  74
ENDBRANCH  69  71
ENDBRANCH  66  67
BRANCH  66  79
ATOM     79  CB  LEU A   2     -14.349  -4.867  13.921  0.00  0.00    +0.000 C 
BRANCH  79  80
ATOM     80  CG  LEU A   2     -15.106  -3.593  13.552  0.00  0.00    +0.000 C 
ATOM     81  CD2 LEU A   2     -16.561  -3.951  13.297  0.00  0.00    +0.000 C 
ATOM     82  CD1 LEU A   2     -14.509  -2.913  12.335  0.00  0.00    +0.000 C 
ENDBRANCH  79  80
ENDBRANCH  66  79
ENDBRANCH  63  66
ENDBRANCH  31  62
ENDBRANCH  30  31
ENDBRANCH  29  30
ENDBRANCH  14  25
BRANCH   1  84
ATOM     83  C   UNK A   3     -11.788   0.622  10.148  0.00  0.00    +0.000 C 
ATOM     84  N   UNK A   4     -11.245  -0.386  10.815  0.00  0.00    +0.000 N 
ATOM     85  H   UNK A   4     -11.460  -0.489  11.827  0.00  0.00    +0.000 HD
ATOM     86  O   UNK A   3     -11.550   0.851   8.956  0.00  0.00    +0.000 OA
BRANCH  83  87
ATOM     87  C   UNK A   3     -12.734   1.487  10.956  0.00  0.00    +0.000 C 
BRANCH  87  90
ATOM     88  C   LEU A   2     -12.655   3.894  11.058  0.00  0.00    +0.000 C 
ATOM     89  O   LEU A   2     -12.672   3.919  12.294  0.00  0.00    +0.000 OA
ATOM     90  N   UNK A   3     -12.860   2.795  10.343  0.00  0.00    +0.000 N 
ATOM     91  H   UNK A   3     -13.113   2.872   9.337  0.00  0.00    +0.000 HD
BRANCH  88  92
ATOM     92  CA  LEU A   2     -12.405   5.157  10.269  0.00  0.00    +0.000 C 
BRANCH  92  94
ATOM     93  C   GLU A   1     -12.803   7.532  10.585  0.00  0.00    +0.000 C 
ATOM     94  N   LEU A   2     -12.671   6.320  11.109  0.00  0.00    +0.000 N 
ATOM     95  H   LEU A   2     -12.759   6.197  12.138  0.00  0.00    +0.000 HD
ATOM     96  O   GLU A   1     -12.737   7.726   9.381  0.00  0.00    +0.000 OA
BRANCH  93  97
ATOM     97  CA  GLU A   1     -13.059   8.697  11.546  0.00  0.00    +0.000 C 
BRANCH  97  98
ATOM     98  CB  GLU A   1     -11.727   9.334  12.050  0.00  0.00    +0.000 C 
ATOM     99  CG2 GLU A   1     -11.042   8.477  13.117  0.00  0.00    +0.000 C 
BRANCH  98 100
ATOM    100  CG1 GLU A   1     -10.788   9.642  10.886  0.00  0.00    +0.000 C 
ATOM    101  CD1 GLU A   1      -9.628  10.541  11.271  0.00  0.00    +0.000 C 
ENDBRANCH  98 100
ENDBRANCH  97  98
BRANCH  97 102
ATOM    102  N   GLU A   1     -13.946   8.337  12.646  0.00  0.00    +0.000 NA
ATOM    103  H   GLU A   1     -13.586   7.722  13.403  0.00  0.00    +0.000 HD
ENDBRANCH  97 102
ENDBRANCH  93  97
ENDBRANCH  92  94
BRANCH  92 104
ATOM    104  CB  LEU A   2     -10.954   5.170   9.760  0.00  0.00    +0.000 C 
BRANCH 104 105
ATOM    105  CG  LEU A   2      -9.905   5.314  10.867  0.00  0.00    +0.000 C 
BRANCH 105 106
ATOM    106  CD  LEU A   2      -9.126   4.042  11.156  0.00  0.00    +0.000 C 
ATOM    107  NE2 LEU A   2      -7.867   4.211  11.541  0.00  0.00    +0.000 N 
ATOM    108 HE21 LEU A   2      -7.283   3.386  11.786  0.00  0.00    +0.000 HD
ATOM    109 HE22 LEU A   2      -7.465   5.168  11.598  0.00  0.00    +0.000 HD
ATOM    110  OE1 LEU A   2      -9.651   2.928  11.072  0.00  0.00    +0.000 OA
ENDBRANCH 105 106
ENDBRANCH 104 105
ENDBRANCH  92 104
ENDBRANCH  88  92
ENDBRANCH  87  90
BRANCH  87 111
ATOM    111  C   UNK A   3     -14.086   0.792  11.207  0.00  0.00    +0.000 C 
BRANCH 111 112
ATOM    112  C   UNK A   3     -14.816   0.333   9.965  0.00  0.00    +0.000 A 
ATOM    113  C   UNK A   3     -15.932   1.024   9.521  0.00  0.00    +0.000 A 
ATOM    114  C   UNK A   3     -16.633   0.597   8.410  0.00  0.00    +0.000 A 
ATOM    115  C   UNK A   3     -16.231  -0.537   7.733  0.00  0.00    +0.000 A 
ATOM    116  C   UNK A   3     -15.123  -1.244   8.171  0.00  0.00    +0.000 A 
ATOM    117  C   UNK A   3     -14.434  -0.818   9.287  0.00  0.00    +0.000 A 
ENDBRANCH 111 112
ENDBRANCH  87 111
ENDBRANCH  83  87
ENDBRANCH   1  84
BRANCH   9 118
ATOM    118  C   UNK A   6      -7.280  -8.566  12.384  0.00  0.00    +0.000 C 
ATOM    119  O   UNK A   6      -8.346  -8.916  12.900  0.00  0.00    +0.000 OA
ENDBRANCH   9 118
BRANCH   5 120
ATOM    120  CB  VAL A   5     -10.385  -6.023  10.416  0.00  0.00    +0.000 C 
BRANCH 120 121
ATOM    121  CG  VAL A   5     -11.825  -5.730  10.086  0.00  0.00    +0.000 A 
ATOM    122  CD2 VAL A   5     -12.853  -6.359  10.771  0.00  0.00    +0.000 A 
ATOM    123  CE2 VAL A   5     -14.181  -6.132  10.437  0.00  0.00    +0.000 A 
ATOM    124  CZ  VAL A   5     -14.492  -5.275   9.396  0.00  0.00    +0.000 A 
ATOM    125  CE1 VAL A   5     -13.483  -4.665   8.685  0.00  0.00    +0.000 A 
ATOM    126  CD1 VAL A   5     -12.153  -4.900   9.025  0.00  0.00    +0.000 A 
ENDBRANCH 120 121
ENDBRANCH   5 120
TORSDOF 42
REMARK  Name = ../refined-set-2016/4rux/4rux_pocket.pdb
REMARK  147 active torsions:
REMARK  status: ('A' for Active; 'I' for Inactive)
REMARK    1  A    between atoms: _1  and  _3
REMARK    2  A    between atoms: _3  and  _4
REMARK    3  A    between atoms: _3  and  _6
REMARK    4  A    between atoms: _6  and  _7
REMARK    5  A    between atoms: _17  and  _19
REMARK    6  A    between atoms: _19  and  _20
REMARK    7  A    between atoms: _19  and  _22
REMARK    8  A    between atoms: _22  and  _23
REMARK    9  A    between atoms: _28  and  _29
REMARK   10  A    between atoms: _31  and  _33
REMARK   11  A    between atoms: _33  and  _34
REMARK   12  A    between atoms: _33  and  _36
REMARK   13  A    between atoms: _36  and  _37
REMARK   14  A    between atoms: _40  and  _41
REMARK   15  A    between atoms: _46  and  _48
REMARK   16  A    between atoms: _48  and  _49
REMARK   17  A    between atoms: _48  and  _51
REMARK   18  A    between atoms: _51  and  _52
REMARK   19  A    between atoms: _57  and  _59
REMARK   20  A    between atoms: _59  and  _60
REMARK   21  A    between atoms: _63  and  _65
REMARK   22  A    between atoms: _65  and  _66
REMARK   23  A    between atoms: _65  and  _68
REMARK   24  A    between atoms: _68  and  _69
REMARK   25  A    between atoms: _74  and  _76
REMARK   26  A    between atoms: _76  and  _77
REMARK   27  A    between atoms: _76  and  _79
REMARK   28  A    between atoms: _79  and  _80
REMARK   29  A    between atoms: _83  and  _85
REMARK   30  A    between atoms: _85  and  _86
REMARK   31  A    between atoms: _85  and  _88
REMARK   32  A    between atoms: _88  and  _89
REMARK   33  A    between atoms: _89  and  _90
REMARK   34  A    between atoms: _95  and  _97
REMARK   35  A    between atoms: _97  and  _98
REMARK   36  A    between atoms: _97  and  _100
REMARK   37  A    between atoms: _100  and  _101
REMARK   38  A    between atoms: _107  and  _109
REMARK   39  A    between atoms: _120  and  _123
REMARK   40  A    between atoms: _123  and  _124
REMARK   41  A    between atoms: _132  and  _133
REMARK   42  A    between atoms: _141  and  _143
REMARK   43  A    between atoms: _143  and  _144
REMARK   44  A    between atoms: _143  and  _146
REMARK   45  A    between atoms: _146  and  _147
REMARK   46  A    between atoms: _147  and  _148
REMARK   47  A    between atoms: _151  and  _153
REMARK   48  A    between atoms: _153  and  _154
REMARK   49  A    between atoms: _153  and  _156
REMARK   50  A    between atoms: _156  and  _157
REMARK   51  A    between atoms: _162  and  _164
REMARK   52  A    between atoms: _164  and  _165
REMARK   53  A    between atoms: _164  and  _167
REMARK   54  A    between atoms: _167  and  _168
REMARK   55  A    between atoms: _168  and  _169
REMARK   56  A    between atoms: _172  and  _174
REMARK   57  A    between atoms: _174  and  _175
REMARK   58  A    between atoms: _174  and  _177
REMARK   59  A    between atoms: _177  and  _178
REMARK   60  A    between atoms: _181  and  _183
REMARK   61  A    between atoms: _183  and  _184
REMARK   62  A    between atoms: _183  and  _186
REMARK   63  A    between atoms: _186  and  _187
REMARK   64  A    between atoms: _188  and  ZN_413
REMARK   65  A    between atoms: _192  and  _194
REMARK   66  A    between atoms: _194  and  _195
REMARK   67  A    between atoms: _194  and  _197
REMARK   68  A    between atoms: _197  and  _198
REMARK   69  A    between atoms: _201  and  _203
REMARK   70  A    between atoms: _203  and  _204
REMARK   71  A    between atoms: _203  and  _206
REMARK   72  A    between atoms: _209  and  _211
REMARK   73  A    between atoms: _211  and  _212
REMARK   74  A    between atoms: _211  and  _214
REMARK   75  A    between atoms: _214  and  _215
REMARK   76  A    between atoms: _220  and  _222
REMARK   77  A    between atoms: _222  and  _223
REMARK   78  A    between atoms: _222  and  _225
REMARK   79  A    between atoms: _225  and  _226
REMARK   80  A    between atoms: _232  and  _234
REMARK   81  A    between atoms: _234  and  _235
REMARK   82  A    between atoms: _237  and  _239
REMARK   83  A    between atoms: _239  and  _240
REMARK   84  A    between atoms: _239  and  _242
REMARK   85  A    between atoms: _245  and  _247
REMARK   86  A    between atoms: _247  and  _248
REMARK   87  A    between atoms: _247  and  _250
REMARK   88  A    between atoms: _250  and  _251
REMARK   89  A    between atoms: _254  and  _256
REMARK   90  A    between atoms: _256  and  _257
REMARK   91  A    between atoms: _260  and  _262
REMARK   92  A    between atoms: _262  and  _263
REMARK   93  A    between atoms: _262  and  _265
REMARK   94  A    between atoms: _268  and  _270
REMARK   95  A    between atoms: _270  and  _271
REMARK   96  A    between atoms: _270  and  _273
REMARK   97  A    between atoms: _273  and  _274
REMARK   98  A    between atoms: _277  and  _279
REMARK   99  A    between atoms: _279  and  _280
REMARK  100  A    between atoms: _282  and  _284
REMARK  101  A    between atoms: _284  and  _285
REMARK  102  A    between atoms: _287  and  _289
REMARK  103  A    between atoms: _289  and  _290
REMARK  104  A    between atoms: _289  and  _292
REMARK  105  A    between atoms: _292  and  _293
REMARK  106  A    between atoms: _295  and  _297
REMARK  107  A    between atoms: _297  and  _298
REMARK  108  A    between atoms: _297  and  _300
REMARK  109  A    between atoms: _300  and  _301
REMARK  110  A    between atoms: _304  and  _306
REMARK  111  A    between atoms: _306  and  _307
REMARK  112  A    between atoms: _306  and  _309
REMARK  113  A    between atoms: _309  and  _310
REMARK  114  A    between atoms: _313  and  _315
REMARK  115  A    between atoms: _315  and  _316
REMARK  116  A    between atoms: _315  and  _318
REMARK  117  A    between atoms: _318  and  _319
REMARK  118  A    between atoms: _323  and  _324
REMARK  119  A    between atoms: _330  and  _331
REMARK  120  A    between atoms: _336  and  _338
REMARK  121  A    between atoms: _338  and  _339
REMARK  122  A    between atoms: _338  and  _341
REMARK  123  A    between atoms: _341  and  _342
REMARK  124  A    between atoms: _345  and  _347
REMARK  125  A    between atoms: _347  and  _348
REMARK  126  A    between atoms: _347  and  _350
REMARK  127  A    between atoms: _350  and  _351
REMARK  128  A    between atoms: _354  and  _356
REMARK  129  A    between atoms: _356  and  _357
REMARK  130  A    between atoms: _356  and  _359
REMARK  131  A    between atoms: _361  and  _363
REMARK  132  A    between atoms: _363  and  _364
REMARK  133  A    between atoms: _363  and  _366
REMARK  134  A    between atoms: _369  and  _371
REMARK  135  A    between atoms: _371  and  _372
REMARK  136  A    between atoms: _371  and  _374
REMARK  137  A    between atoms: _374  and  _375
REMARK  138  A    between atoms: _385  and  _387
REMARK  139  A    between atoms: _387  and  _388
REMARK  140  A    between atoms: _387  and  _390
REMARK  141  A    between atoms: _390  and  _391
REMARK  142  A    between atoms: _396  and  _398
REMARK  143  A    between atoms: _398  and  _399
REMARK  144  A    between atoms: _398  and  _401
REMARK  145  A    between atoms: _401  and  _402
REMARK  146  A    between atoms: _402  and  _403
REMARK  147  A    between atoms: _403  and  _404
REMARK                            x       y       z     vdW  Elec       q    Type
REMARK                         _______ _______ _______ _____ _____    ______ ____
ROOT
ATOM      1  C   GLU A   1      -5.873  -8.358  20.925  0.00  0.00    +0.238 C 
ATOM      2  O   GLU A   1      -5.082  -8.915  21.682  0.00  0.00    -0.274 OA
ATOM      3  N   HIS A   2      -7.040  -7.898  21.345  0.00  0.00    -0.298 N 
ATOM      4  H   HIS A   2      -7.607  -7.269  20.741  0.00  0.00    +0.150 HD
ENDROOT
BRANCH   1   5
ATOM      5  CA  GLU A   1      -5.558  -8.188  19.439  0.00  0.00    +0.145 C 
BRANCH   5   6
ATOM      6  N   GLU A   1      -6.576  -8.877  18.658  0.00  0.00    -0.238 NA
ATOM      7  H   GLU A   1      -7.448  -8.365  18.414  0.00  0.00    +0.142 HD
ENDBRANCH   5   6
BRANCH   5   8
ATOM      8  CB  GLU A   1      -5.484  -6.716  19.021  0.00  0.00    +0.038 C 
BRANCH   8   9
ATOM      9  CG  GLU A   1      -5.104  -6.582  17.561  0.00  0.00    +0.116 C 
BRANCH   9  10
ATOM     10  CD  GLU A   1      -4.401  -5.291  17.265  0.00  0.00    +0.365 C 
ATOM     11  OE2 GLU A   1      -5.015  -4.224  17.476  0.00  0.00    -0.246 OA
ATOM     12  OE1 GLU A   1      -3.237  -5.349  16.811  0.00  0.00    -0.246 OA
ENDBRANCH   9  10
ENDBRANCH   8   9
ENDBRANCH   5   8
ENDBRANCH   1   5
BRANCH   3  13
ATOM     13  CA  HIS A   2      -7.520  -8.283  22.661  0.00  0.00    +0.143 C 
BRANCH  13  14
ATOM     14  C   HIS A   2      -7.807  -9.769  22.686  0.00  0.00    +0.227 C 
ATOM     15  O   HIS A   2      -8.146 -10.377  21.664  0.00  0.00    -0.286 OA
ENDBRANCH  13  14
BRANCH  13  16
ATOM     16  CB  HIS A   2      -8.751  -7.470  23.047  0.00  0.00    +0.075 C 
BRANCH  16  17
ATOM     17  CG  HIS A   2      -8.447  -6.017  23.211  0.00  0.00    +0.082 A 
ATOM     18  CD2 HIS A   2      -7.988  -5.320  24.279  0.00  0.00    +0.115 A 
ATOM     19  NE2 HIS A   2      -7.797  -4.024  23.875  0.00  0.00    -0.221 NA
ATOM     20  CE1 HIS A   2      -8.122  -3.930  22.599  0.00  0.00    +0.199 A 
ATOM     21  ND1 HIS A   2      -8.503  -5.123  22.165  0.00  0.00    -0.227 NA
ENDBRANCH  16  17
ENDBRANCH  13  16
ENDBRANCH   3  13
TORSDOF 9
REMARK  Name = ../refined-set-2016/4rux/4rux_pocket.pdb
REMARK  147 active torsions:
REMARK  status: ('A' for Active; 'I' for Inactive)
REMARK    1  A    between atoms: _1  and  _3
REMARK    2  A    between atoms: _3  and  _4
REMARK    3  A    between atoms: _3  and  _6
REMARK    4  A    between atoms: _6  and  _7
REMARK    5  A    between atoms: _17  and  _19
REMARK    6  A    between atoms: _19  and  _20
REMARK    7  A    between atoms: _19  and  _22
REMARK    8  A    between atoms: _22  and  _23
REMARK    9  A    between atoms: _28  and  _29
REMARK   10  A    between atoms: _31  and  _33
REMARK   11  A    between atoms: _33  and  _34
REMARK   12  A    between atoms: _33  and  _36
REMARK   13  A    between atoms: _36  and  _37
REMARK   14  A    between atoms: _40  and  _41
REMARK   15  A    between atoms: _46  and  _48
REMARK   16  A    between atoms: _48  and  _49
REMARK   17  A    between atoms: _48  and  _51
REMARK   18  A    between atoms: _51  and  _52
REMARK   19  A    between atoms: _57  and  _59
REMARK   20  A    between atoms: _59  and  _60
REMARK   21  A    between atoms: _63  and  _65
REMARK   22  A    between atoms: _65  and  _66
REMARK   23  A    between atoms: _65  and  _68
REMARK   24  A    between atoms: _68  and  _69
REMARK   25  A    between atoms: _74  and  _76
REMARK   26  A    between atoms: _76  and  _77
REMARK   27  A    between atoms: _76  and  _79
REMARK   28  A    between atoms: _79  and  _80
REMARK   29  A    between atoms: _83  and  _85
REMARK   30  A    between atoms: _85  and  _86
REMARK   31  A    between atoms: _85  and  _88
REMARK   32  A    between atoms: _88  and  _89
REMARK   33  A    between atoms: _89  and  _90
REMARK   34  A    between atoms: _95  and  _97
REMARK   35  A    between atoms: _97  and  _98
REMARK   36  A    between atoms: _97  and  _100
REMARK   37  A    between atoms: _100  and  _101
REMARK   38  A    between atoms: _107  and  _109
REMARK   39  A    between atoms: _120  and  _123
REMARK   40  A    between atoms: _123  and  _124
REMARK   41  A    between atoms: _132  and  _133
REMARK   42  A    between atoms: _141  and  _143
REMARK   43  A    between atoms: _143  and  _144
REMARK   44  A    between atoms: _143  and  _146
REMARK   45  A    between atoms: _146  and  _147
REMARK   46  A    between atoms: _147  and  _148
REMARK   47  A    between atoms: _151  and  _153
REMARK   48  A    between atoms: _153  and  _154
REMARK   49  A    between atoms: _153  and  _156
REMARK   50  A    between atoms: _156  and  _157
REMARK   51  A    between atoms: _162  and  _164
REMARK   52  A    between atoms: _164  and  _165
REMARK   53  A    between atoms: _164  and  _167
REMARK   54  A    between atoms: _167  and  _168
REMARK   55  A    between atoms: _168  and  _169
REMARK   56  A    between atoms: _172  and  _174
REMARK   57  A    between atoms: _174  and  _175
REMARK   58  A    between atoms: _174  and  _177
REMARK   59  A    between atoms: _177  and  _178
REMARK   60  A    between atoms: _181  and  _183
REMARK   61  A    between atoms: _183  and  _184
REMARK   62  A    between atoms: _183  and  _186
REMARK   63  A    between atoms: _186  and  _187
REMARK   64  A    between atoms: _188  and  ZN_413
REMARK   65  A    between atoms: _192  and  _194
REMARK   66  A    between atoms: _194  and  _195
REMARK   67  A    between atoms: _194  and  _197
REMARK   68  A    between atoms: _197  and  _198
REMARK   69  A    between atoms: _201  and  _203
REMARK   70  A    between atoms: _203  and  _204
REMARK   71  A    between atoms: _203  and  _206
REMARK   72  A    between atoms: _209  and  _211
REMARK   73  A    between atoms: _211  and  _212
REMARK   74  A    between atoms: _211  and  _214
REMARK   75  A    between atoms: _214  and  _215
REMARK   76  A    between atoms: _220  and  _222
REMARK   77  A    between atoms: _222  and  _223
REMARK   78  A    between atoms: _222  and  _225
REMARK   79  A    between atoms: _225  and  _226
REMARK   80  A    between atoms: _232  and  _234
REMARK   81  A    between atoms: _234  and  _235
REMARK   82  A    between atoms: _237  and  _239
REMARK   83  A    between atoms: _239  and  _240
REMARK   84  A    between atoms: _239  and  _242
REMARK   85  A    between atoms: _245  and  _247
REMARK   86  A    between atoms: _247  and  _248
REMARK   87  A    between atoms: _247  and  _250
REMARK   88  A    between atoms: _250  and  _251
REMARK   89  A    between atoms: _254  and  _256
REMARK   90  A    between atoms: _256  and  _257
REMARK   91  A    between atoms: _260  and  _262
REMARK   92  A    between atoms: _262  and  _263
REMARK   93  A    between atoms: _262  and  _265
REMARK   94  A    between atoms: _268  and  _270
REMARK   95  A    between atoms: _270  and  _271
REMARK   96  A    between atoms: _270  and  _273
REMARK   97  A    between atoms: _273  and  _274
REMARK   98  A    between atoms: _277  and  _279
REMARK   99  A    between atoms: _279  and  _280
REMARK  100  A    between atoms: _282  and  _284
REMARK  101  A    between atoms: _284  and  _285
REMARK  102  A    between atoms: _287  and  _289
REMARK  103  A    between atoms: _289  and  _290
REMARK  104  A    between atoms: _289  and  _292
REMARK  105  A    between atoms: _292  and  _293
REMARK  106  A    between atoms: _295  and  _297
REMARK  107  A    between atoms: _297  and  _298
REMARK  108  A    between atoms: _297  and  _300
REMARK  109  A    between atoms: _300  and  _301
REMARK  110  A    between atoms: _304  and  _306
REMARK  111  A    between atoms: _306  and  _307
REMARK  112  A    between atoms: _306  and  _309
REMARK  113  A    between atoms: _309  and  _310
REMARK  114  A    between atoms: _313  and  _315
REMARK  115  A    between atoms: _315  and  _316
REMARK  116  A    between atoms: _315  and  _318
REMARK  117  A    between atoms: _318  and  _319
REMARK  118  A    between atoms: _323  and  _324
REMARK  119  A    between atoms: _330  and  _331
REMARK  120  A    between atoms: _336  and  _338
REMARK  121  A    between atoms: _338  and  _339
REMARK  122  A    between atoms: _338  and  _341
REMARK  123  A    between atoms: _341  and  _342
REMARK  124  A    between atoms: _345  and  _347
REMARK  125  A    between atoms: _347  and  _348
REMARK  126  A    between atoms: _347  and  _350
REMARK  127  A    between atoms: _350  and  _351
REMARK  128  A    between atoms: _354  and  _356
REMARK  129  A    between atoms: _356  and  _357
REMARK  130  A    between atoms: _356  and  _359
REMARK  131  A    between atoms: _361  and  _363
REMARK  132  A    between atoms: _363  and  _364
REMARK  133  A    between atoms: _363  and  _366
REMARK  134  A    between atoms: _369  and  _371
REMARK  135  A    between atoms: _371  and  _372
REMARK  136  A    between atoms: _371  and  _374
REMARK  137  A    between atoms: _374  and  _375
REMARK  138  A    between atoms: _385  and  _387
REMARK  139  A    between atoms: _387  and  _388
REMARK  140  A    between atoms: _387  and  _390
REMARK  141  A    between atoms: _390  and  _391
REMARK  142  A    between atoms: _396  and  _398
REMARK  143  A    between atoms: _398  and  _399
REMARK  144  A    between atoms: _398  and  _401
REMARK  145  A    between atoms: _401  and  _402
REMARK  146  A    between atoms: _402  and  _403
REMARK  147  A    between atoms: _403  and  _404
REMARK                            x       y       z     vdW  Elec       q    Type
REMARK                         _______ _______ _______ _____ _____    ______ ____
ROOT
ATOM      1  CA  PHE A   1      -7.682  13.573  15.025  0.00  0.00    +0.149 C 
ENDROOT
BRANCH   1   2
ATOM      2  C   PHE A   1      -6.220  13.733  15.433  0.00  0.00    +0.239 C 
ATOM      3  O   PHE A   1      -5.780  13.138  16.420  0.00  0.00    -0.274 OA
ATOM      4  N   GLY A   2      -5.462  14.520  14.675  0.00  0.00    -0.297 N 
ATOM      5  H   GLY A   2      -5.886  15.016  13.865  0.00  0.00    +0.150 HD
BRANCH   4   6
ATOM      6  CA  GLY A   2      -4.054  14.694  14.964  0.00  0.00    +0.163 C 
BRANCH   6   7
ATOM      7  C   GLY A   2      -3.777  15.305  16.328  0.00  0.00    +0.229 C 
ATOM      8  O   GLY A   2      -2.811  14.947  17.004  0.00  0.00    -0.286 OA
ENDBRANCH   6   7
ENDBRANCH   4   6
ENDBRANCH   1   2
BRANCH   1   9
ATOM      9  N   PHE A   1      -8.286  14.832  14.640  0.00  0.00    -0.238 NA
ATOM     10  H   PHE A   1      -8.594  14.963  13.655  0.00  0.00    +0.142 HD
ENDBRANCH   1   9
BRANCH   1  11
ATOM     11  CB  PHE A   1      -7.825  12.591  13.863  0.00  0.00    +0.053 C 
BRANCH  11  12
ATOM     12  CG  PHE A   1      -7.164  11.279  14.094  0.00  0.00    -0.020 A 
ATOM     13  CD2 PHE A   1      -7.821  10.268  14.776  0.00  0.00    -0.004 A 
ATOM     14  CE2 PHE A   1      -7.216   9.044  14.985  0.00  0.00    -0.000 A 
ATOM     15  CZ  PHE A   1      -5.939   8.822  14.517  0.00  0.00    -0.000 A 
ATOM     16  CE1 PHE A   1      -5.274   9.816  13.835  0.00  0.00    -0.000 A 
ATOM     17  CD1 PHE A   1      -5.884  11.038  13.628  0.00  0.00    -0.004 A 
ENDBRANCH  11  12
ENDBRANCH   1  11
TORSDOF 6
REMARK  Name = ../refined-set-2016/4rux/4rux_pocket.pdb
REMARK  147 active torsions:
REMARK  status: ('A' for Active; 'I' for Inactive)
REMARK    1  A    between atoms: _1  and  _3
REMARK    2  A    between atoms: _3  and  _4
REMARK    3  A    between atoms: _3  and  _6
REMARK    4  A    between atoms: _6  and  _7
REMARK    5  A    between atoms: _17  and  _19
REMARK    6  A    between atoms: _19  and  _20
REMARK    7  A    between atoms: _19  and  _22
REMARK    8  A    between atoms: _22  and  _23
REMARK    9  A    between atoms: _28  and  _29
REMARK   10  A    between atoms: _31  and  _33
REMARK   11  A    between atoms: _33  and  _34
REMARK   12  A    between atoms: _33  and  _36
REMARK   13  A    between atoms: _36  and  _37
REMARK   14  A    between atoms: _40  and  _41
REMARK   15  A    between atoms: _46  and  _48
REMARK   16  A    between atoms: _48  and  _49
REMARK   17  A    between atoms: _48  and  _51
REMARK   18  A    between atoms: _51  and  _52
REMARK   19  A    between atoms: _57  and  _59
REMARK   20  A    between atoms: _59  and  _60
REMARK   21  A    between atoms: _63  and  _65
REMARK   22  A    between atoms: _65  and  _66
REMARK   23  A    between atoms: _65  and  _68
REMARK   24  A    between atoms: _68  and  _69
REMARK   25  A    between atoms: _74  and  _76
REMARK   26  A    between atoms: _76  and  _77
REMARK   27  A    between atoms: _76  and  _79
REMARK   28  A    between atoms: _79  and  _80
REMARK   29  A    between atoms: _83  and  _85
REMARK   30  A    between atoms: _85  and  _86
REMARK   31  A    between atoms: _85  and  _88
REMARK   32  A    between atoms: _88  and  _89
REMARK   33  A    between atoms: _89  and  _90
REMARK   34  A    between atoms: _95  and  _97
REMARK   35  A    between atoms: _97  and  _98
REMARK   36  A    between atoms: _97  and  _100
REMARK   37  A    between atoms: _100  and  _101
REMARK   38  A    between atoms: _107  and  _109
REMARK   39  A    between atoms: _120  and  _123
REMARK   40  A    between atoms: _123  and  _124
REMARK   41  A    between atoms: _132  and  _133
REMARK   42  A    between atoms: _141  and  _143
REMARK   43  A    between atoms: _143  and  _144
REMARK   44  A    between atoms: _143  and  _146
REMARK   45  A    between atoms: _146  and  _147
REMARK   46  A    between atoms: _147  and  _148
REMARK   47  A    between atoms: _151  and  _153
REMARK   48  A    between atoms: _153  and  _154
REMARK   49  A    between atoms: _153  and  _156
REMARK   50  A    between atoms: _156  and  _157
REMARK   51  A    between atoms: _162  and  _164
REMARK   52  A    between atoms: _164  and  _165
REMARK   53  A    between atoms: _164  and  _167
REMARK   54  A    between atoms: _167  and  _168
REMARK   55  A    between atoms: _168  and  _169
REMARK   56  A    between atoms: _172  and  _174
REMARK   57  A    between atoms: _174  and  _175
REMARK   58  A    between atoms: _174  and  _177
REMARK   59  A    between atoms: _177  and  _178
REMARK   60  A    between atoms: _181  and  _183
REMARK   61  A    between atoms: _183  and  _184
REMARK   62  A    between atoms: _183  and  _186
REMARK   63  A    between atoms: _186  and  _187
REMARK   64  A    between atoms: _188  and  ZN_413
REMARK   65  A    between atoms: _192  and  _194
REMARK   66  A    between atoms: _194  and  _195
REMARK   67  A    between atoms: _194  and  _197
REMARK   68  A    between atoms: _197  and  _198
REMARK   69  A    between atoms: _201  and  _203
REMARK   70  A    between atoms: _203  and  _204
REMARK   71  A    between atoms: _203  and  _206
REMARK   72  A    between atoms: _209  and  _211
REMARK   73  A    between atoms: _211  and  _212
REMARK   74  A    between atoms: _211  and  _214
REMARK   75  A    between atoms: _214  and  _215
REMARK   76  A    between atoms: _220  and  _222
REMARK   77  A    between atoms: _222  and  _223
REMARK   78  A    between atoms: _222  and  _225
REMARK   79  A    between atoms: _225  and  _226
REMARK   80  A    between atoms: _232  and  _234
REMARK   81  A    between atoms: _234  and  _235
REMARK   82  A    between atoms: _237  and  _239
REMARK   83  A    between atoms: _239  and  _240
REMARK   84  A    between atoms: _239  and  _242
REMARK   85  A    between atoms: _245  and  _247
REMARK   86  A    between atoms: _247  and  _248
REMARK   87  A    between atoms: _247  and  _250
REMARK   88  A    between atoms: _250  and  _251
REMARK   89  A    between atoms: _254  and  _256
REMARK   90  A    between atoms: _256  and  _257
REMARK   91  A    between atoms: _260  and  _262
REMARK   92  A    between atoms: _262  and  _263
REMARK   93  A    between atoms: _262  and  _265
REMARK   94  A    between atoms: _268  and  _270
REMARK   95  A    between atoms: _270  and  _271
REMARK   96  A    between atoms: _270  and  _273
REMARK   97  A    between atoms: _273  and  _274
REMARK   98  A    between atoms: _277  and  _279
REMARK   99  A    between atoms: _279  and  _280
REMARK  100  A    between atoms: _282  and  _284
REMARK  101  A    between atoms: _284  and  _285
REMARK  102  A    between atoms: _287  and  _289
REMARK  103  A    between atoms: _289  and  _290
REMARK  104  A    between atoms: _289  and  _292
REMARK  105  A    between atoms: _292  and  _293
REMARK  106  A    between atoms: _295  and  _297
REMARK  107  A    between atoms: _297  and  _298
REMARK  108  A    between atoms: _297  and  _300
REMARK  109  A    between atoms: _300  and  _301
REMARK  110  A    between atoms: _304  and  _306
REMARK  111  A    between atoms: _306  and  _307
REMARK  112  A    between atoms: _306  and  _309
REMARK  113  A    between atoms: _309  and  _310
REMARK  114  A    between atoms: _313  and  _315
REMARK  115  A    between atoms: _315  and  _316
REMARK  116  A    between atoms: _315  and  _318
REMARK  117  A    between atoms: _318  and  _319
REMARK  118  A    between atoms: _323  and  _324
REMARK  119  A    between atoms: _330  and  _331
REMARK  120  A    between atoms: _336  and  _338
REMARK  121  A    between atoms: _338  and  _339
REMARK  122  A    between atoms: _338  and  _341
REMARK  123  A    between atoms: _341  and  _342
REMARK  124  A    between atoms: _345  and  _347
REMARK  125  A    between atoms: _347  and  _348
REMARK  126  A    between atoms: _347  and  _350
REMARK  127  A    between atoms: _350  and  _351
REMARK  128  A    between atoms: _354  and  _356
REMARK  129  A    between atoms: _356  and  _357
REMARK  130  A    between atoms: _356  and  _359
REMARK  131  A    between atoms: _361  and  _363
REMARK  132  A    between atoms: _363  and  _364
REMARK  133  A    between atoms: _363  and  _366
REMARK  134  A    between atoms: _369  and  _371
REMARK  135  A    between atoms: _371  and  _372
REMARK  136  A    between atoms: _371  and  _374
REMARK  137  A    between atoms: _374  and  _375
REMARK  138  A    between atoms: _385  and  _387
REMARK  139  A    between atoms: _387  and  _388
REMARK  140  A    between atoms: _387  and  _390
REMARK  141  A    between atoms: _390  and  _391
REMARK  142  A    between atoms: _396  and  _398
REMARK  143  A    between atoms: _398  and  _399
REMARK  144  A    between atoms: _398  and  _401
REMARK  145  A    between atoms: _401  and  _402
REMARK  146  A    between atoms: _402  and  _403
REMARK  147  A    between atoms: _403  and  _404
REMARK                            x       y       z     vdW  Elec       q    Type
REMARK                         _______ _______ _______ _____ _____    ______ ____
ROOT
ATOM      1  CA  VAL A   1      -3.957  11.465  19.609  0.00  0.00    +0.133 C 
ENDROOT
BRANCH   1   2
ATOM      2  CB  VAL A   1      -3.355  10.724  18.396  0.00  0.00    +0.023 C 
ATOM      3  CG2 VAL A   1      -2.445  11.626  17.567  0.00  0.00    +0.002 C 
ATOM      4  CG1 VAL A   1      -4.464  10.122  17.551  0.00  0.00    +0.002 C 
ENDBRANCH   1   2
BRANCH   1   5
ATOM      5  N   VAL A   1      -4.842  12.564  19.239  0.00  0.00    -0.239 NA
ATOM      6  H   VAL A   1      -4.835  12.944  18.271  0.00  0.00    +0.142 HD
ENDBRANCH   1   5
BRANCH   1   7
ATOM      7  C   VAL A   1      -2.855  11.888  20.567  0.00  0.00    +0.224 C 
ATOM      8  O   VAL A   1      -2.146  11.039  21.114  0.00  0.00    -0.287 OA
ENDBRANCH   1   7
TORSDOF 3
REMARK  Name = ../refined-set-2016/4rux/4rux_pocket.pdb
REMARK  147 active torsions:
REMARK  status: ('A' for Active; 'I' for Inactive)
REMARK    1  A    between atoms: _1  and  _3
REMARK    2  A    between atoms: _3  and  _4
REMARK    3  A    between atoms: _3  and  _6
REMARK    4  A    between atoms: _6  and  _7
REMARK    5  A    between atoms: _17  and  _19
REMARK    6  A    between atoms: _19  and  _20
REMARK    7  A    between atoms: _19  and  _22
REMARK    8  A    between atoms: _22  and  _23
REMARK    9  A    between atoms: _28  and  _29
REMARK   10  A    between atoms: _31  and  _33
REMARK   11  A    between atoms: _33  and  _34
REMARK   12  A    between atoms: _33  and  _36
REMARK   13  A    between atoms: _36  and  _37
REMARK   14  A    between atoms: _40  and  _41
REMARK   15  A    between atoms: _46  and  _48
REMARK   16  A    between atoms: _48  and  _49
REMARK   17  A    between atoms: _48  and  _51
REMARK   18  A    between atoms: _51  and  _52
REMARK   19  A    between atoms: _57  and  _59
REMARK   20  A    between atoms: _59  and  _60
REMARK   21  A    between atoms: _63  and  _65
REMARK   22  A    between atoms: _65  and  _66
REMARK   23  A    between atoms: _65  and  _68
REMARK   24  A    between atoms: _68  and  _69
REMARK   25  A    between atoms: _74  and  _76
REMARK   26  A    between atoms: _76  and  _77
REMARK   27  A    between atoms: _76  and  _79
REMARK   28  A    between atoms: _79  and  _80
REMARK   29  A    between atoms: _83  and  _85
REMARK   30  A    between atoms: _85  and  _86
REMARK   31  A    between atoms: _85  and  _88
REMARK   32  A    between atoms: _88  and  _89
REMARK   33  A    between atoms: _89  and  _90
REMARK   34  A    between atoms: _95  and  _97
REMARK   35  A    between atoms: _97  and  _98
REMARK   36  A    between atoms: _97  and  _100
REMARK   37  A    between atoms: _100  and  _101
REMARK   38  A    between atoms: _107  and  _109
REMARK   39  A    between atoms: _120  and  _123
REMARK   40  A    between atoms: _123  and  _124
REMARK   41  A    between atoms: _132  and  _133
REMARK   42  A    between atoms: _141  and  _143
REMARK   43  A    between atoms: _143  and  _144
REMARK   44  A    between atoms: _143  and  _146
REMARK   45  A    between atoms: _146  and  _147
REMARK   46  A    between atoms: _147  and  _148
REMARK   47  A    between atoms: _151  and  _153
REMARK   48  A    between atoms: _153  and  _154
REMARK   49  A    between atoms: _153  and  _156
REMARK   50  A    between atoms: _156  and  _157
REMARK   51  A    between atoms: _162  and  _164
REMARK   52  A    between atoms: _164  and  _165
REMARK   53  A    between atoms: _164  and  _167
REMARK   54  A    between atoms: _167  and  _168
REMARK   55  A    between atoms: _168  and  _169
REMARK   56  A    between atoms: _172  and  _174
REMARK   57  A    between atoms: _174  and  _175
REMARK   58  A    between atoms: _174  and  _177
REMARK   59  A    between atoms: _177  and  _178
REMARK   60  A    between atoms: _181  and  _183
REMARK   61  A    between atoms: _183  and  _184
REMARK   62  A    between atoms: _183  and  _186
REMARK   63  A    between atoms: _186  and  _187
REMARK   64  A    between atoms: _188  and  ZN_413
REMARK   65  A    between atoms: _192  and  _194
REMARK   66  A    between atoms: _194  and  _195
REMARK   67  A    between atoms: _194  and  _197
REMARK   68  A    between atoms: _197  and  _198
REMARK   69  A    between atoms: _201  and  _203
REMARK   70  A    between atoms: _203  and  _204
REMARK   71  A    between atoms: _203  and  _206
REMARK   72  A    between atoms: _209  and  _211
REMARK   73  A    between atoms: _211  and  _212
REMARK   74  A    between atoms: _211  and  _214
REMARK   75  A    between atoms: _214  and  _215
REMARK   76  A    between atoms: _220  and  _222
REMARK   77  A    between atoms: _222  and  _223
REMARK   78  A    between atoms: _222  and  _225
REMARK   79  A    between atoms: _225  and  _226
REMARK   80  A    between atoms: _232  and  _234
REMARK   81  A    between atoms: _234  and  _235
REMARK   82  A    between atoms: _237  and  _239
REMARK   83  A    between atoms: _239  and  _240
REMARK   84  A    between atoms: _239  and  _242
REMARK   85  A    between atoms: _245  and  _247
REMARK   86  A    between atoms: _247  and  _248
REMARK   87  A    between atoms: _247  and  _250
REMARK   88  A    between atoms: _250  and  _251
REMARK   89  A    between atoms: _254  and  _256
REMARK   90  A    between atoms: _256  and  _257
REMARK   91  A    between atoms: _260  and  _262
REMARK   92  A    between atoms: _262  and  _263
REMARK   93  A    between atoms: _262  and  _265
REMARK   94  A    between atoms: _268  and  _270
REMARK   95  A    between atoms: _270  and  _271
REMARK   96  A    between atoms: _270  and  _273
REMARK   97  A    between atoms: _273  and  _274
REMARK   98  A    between atoms: _277  and  _279
REMARK   99  A    between atoms: _279  and  _280
REMARK  100  A    between atoms: _282  and  _284
REMARK  101  A    between atoms: _284  and  _285
REMARK  102  A    between atoms: _287  and  _289
REMARK  103  A    between atoms: _289  and  _290
REMARK  104  A    between atoms: _289  and  _292
REMARK  105  A    between atoms: _292  and  _293
REMARK  106  A    between atoms: _295  and  _297
REMARK  107  A    between atoms: _297  and  _298
REMARK  108  A    between atoms: _297  and  _300
REMARK  109  A    between atoms: _300  and  _301
REMARK  110  A    between atoms: _304  and  _306
REMARK  111  A    between atoms: _306  and  _307
REMARK  112  A    between atoms: _306  and  _309
REMARK  113  A    between atoms: _309  and  _310
REMARK  114  A    between atoms: _313  and  _315
REMARK  115  A    between atoms: _315  and  _316
REMARK  116  A    between atoms: _315  and  _318
REMARK  117  A    between atoms: _318  and  _319
REMARK  118  A    between atoms: _323  and  _324
REMARK  119  A    between atoms: _330  and  _331
REMARK  120  A    between atoms: _336  and  _338
REMARK  121  A    between atoms: _338  and  _339
REMARK  122  A    between atoms: _338  and  _341
REMARK  123  A    between atoms: _341  and  _342
REMARK  124  A    between atoms: _345  and  _347
REMARK  125  A    between atoms: _347  and  _348
REMARK  126  A    between atoms: _347  and  _350
REMARK  127  A    between atoms: _350  and  _351
REMARK  128  A    between atoms: _354  and  _356
REMARK  129  A    between atoms: _356  and  _357
REMARK  130  A    between atoms: _356  and  _359
REMARK  131  A    between atoms: _361  and  _363
REMARK  132  A    between atoms: _363  and  _364
REMARK  133  A    between atoms: _363  and  _366
REMARK  134  A    between atoms: _369  and  _371
REMARK  135  A    between atoms: _371  and  _372
REMARK  136  A    between atoms: _371  and  _374
REMARK  137  A    between atoms: _374  and  _375
REMARK  138  A    between atoms: _385  and  _387
REMARK  139  A    between atoms: _387  and  _388
REMARK  140  A    between atoms: _387  and  _390
REMARK  141  A    between atoms: _390  and  _391
REMARK  142  A    between atoms: _396  and  _398
REMARK  143  A    between atoms: _398  and  _399
REMARK  144  A    between atoms: _398  and  _401
REMARK  145  A    between atoms: _401  and  _402
REMARK  146  A    between atoms: _402  and  _403
REMARK  147  A    between atoms: _403  and  _404
REMARK                            x       y       z     vdW  Elec       q    Type
REMARK                         _______ _______ _______ _____ _____    ______ ____
ROOT
ATOM      1  CA  VAL A   3     -11.930   2.777  19.954  0.00  0.00    +0.149 C 
ENDROOT
BRANCH   1   3
ATOM      2  C   ALA A   2     -12.385   5.026  20.699  0.00  0.00    +0.241 C 
ATOM      3  N   VAL A   3     -11.874   3.829  20.958  0.00  0.00    -0.297 N 
ATOM      4  H   VAL A   3     -11.432   3.642  21.881  0.00  0.00    +0.150 HD
ATOM      5  O   ALA A   2     -12.820   5.349  19.591  0.00  0.00    -0.273 OA
BRANCH   2   6
ATOM      6  CA  ALA A   2     -12.346   6.029  21.827  0.00  0.00    +0.149 C 
ATOM      7  CB  ALA A   2     -13.749   6.452  22.216  0.00  0.00    +0.031 C 
BRANCH   6  10
ATOM      8  C   LEU A   1     -10.532   7.653  21.970  0.00  0.00    +0.238 C 
ATOM      9  O   LEU A   1     -10.245   7.356  23.130  0.00  0.00    -0.274 OA
ATOM     10  N   ALA A   2     -11.580   7.159  21.322  0.00  0.00    -0.297 N 
ATOM     11  H   ALA A   2     -11.864   7.595  20.421  0.00  0.00    +0.150 HD
BRANCH   8  12
ATOM     12  CA  LEU A   1      -9.660   8.589  21.164  0.00  0.00    +0.145 C 
BRANCH  12  13
ATOM     13  N   LEU A   1      -8.963   9.532  22.027  0.00  0.00    -0.238 NA
ATOM     14  H   LEU A   1      -8.369   9.167  22.799  0.00  0.00    +0.142 HD
ENDBRANCH  12  13
BRANCH  12  15
ATOM     15  CB  LEU A   1      -8.677   7.731  20.366  0.00  0.00    +0.026 C 
BRANCH  15  16
ATOM     16  CG  LEU A   1      -7.774   8.387  19.330  0.00  0.00    +0.002 C 
ATOM     17  CD2 LEU A   1      -7.101   7.313  18.491  0.00  0.00    +0.000 C 
ATOM     18  CD1 LEU A   1      -8.470   9.424  18.448  0.00  0.00    +0.000 C 
ENDBRANCH  15  16
ENDBRANCH  12  15
ENDBRANCH   8  12
ENDBRANCH   6  10
ENDBRANCH   2   6
ENDBRANCH   1   3
BRANCH   1  19
ATOM     19  C   VAL A   3     -12.884   1.709  20.443  0.00  0.00    +0.241 C 
ATOM     20  O   VAL A   3     -12.744   1.192  21.561  0.00  0.00    -0.273 OA
ATOM     21  N   LEU A   4     -13.894   1.443  19.622  0.00  0.00    -0.297 N 
ATOM     22  H   LEU A   4     -13.990   2.014  18.758  0.00  0.00    +0.150 HD
BRANCH  21  23
ATOM     23  CA  LEU A   4     -14.870   0.398  19.868  0.00  0.00    +0.149 C 
BRANCH  23  24
ATOM     24  C   LEU A   4     -14.358  -0.864  19.188  0.00  0.00    +0.241 C 
ATOM     25  N   GLY A   5     -14.036  -1.874  19.992  0.00  0.00    -0.296 N 
ATOM     26  H   GLY A   5     -14.175  -1.769  21.017  0.00  0.00    +0.150 HD
ATOM     27  O   LEU A   4     -14.216  -0.899  17.954  0.00  0.00    -0.273 OA
BRANCH  25  28
ATOM     28  CA  GLY A   5     -13.496  -3.117  19.477  0.00  0.00    +0.163 C 
BRANCH  28  29
ATOM     29  C   GLY A   5     -14.539  -4.207  19.509  0.00  0.00    +0.229 C 
ATOM     30  O   GLY A   5     -15.271  -4.358  20.492  0.00  0.00    -0.286 OA
ENDBRANCH  28  29
ENDBRANCH  25  28
ENDBRANCH  23  24
BRANCH  23  31
ATOM     31  CB  LEU A   4     -16.214   0.821  19.287  0.00  0.00    +0.029 C 
BRANCH  31  32
ATOM     32  CG  LEU A   4     -17.392  -0.125  19.477  0.00  0.00    +0.002 C 
ATOM     33  CD2 LEU A   4     -17.626  -0.396  20.959  0.00  0.00    +0.000 C 
ATOM     34  CD1 LEU A   4     -18.640   0.466  18.830  0.00  0.00    +0.000 C 
ENDBRANCH  31  32
ENDBRANCH  23  31
ENDBRANCH  21  23
ENDBRANCH   1  19
BRANCH   1  35
ATOM     35  CB  VAL A   3     -10.548   2.191  19.602  0.00  0.00    +0.027 C 
ATOM     36  CG2 VAL A   3      -9.599   3.292  19.165  0.00  0.00    +0.002 C 
ATOM     37  CG1 VAL A   3     -10.701   1.182  18.485  0.00  0.00    +0.002 C 
ENDBRANCH   1  35
TORSDOF 15
REMARK  Name = ../refined-set-2016/4rux/4rux_pocket.pdb
REMARK  147 active torsions:
REMARK  status: ('A' for Active; 'I' for Inactive)
REMARK    1  A    between atoms: _1  and  _3
REMARK    2  A    between atoms: _3  and  _4
REMARK    3  A    between atoms: _3  and  _6
REMARK    4  A    between atoms: _6  and  _7
REMARK    5  A    between atoms: _17  and  _19
REMARK    6  A    between atoms: _19  and  _20
REMARK    7  A    between atoms: _19  and  _22
REMARK    8  A    between atoms: _22  and  _23
REMARK    9  A    between atoms: _28  and  _29
REMARK   10  A    between atoms: _31  and  _33
REMARK   11  A    between atoms: _33  and  _34
REMARK   12  A    between atoms: _33  and  _36
REMARK   13  A    between atoms: _36  and  _37
REMARK   14  A    between atoms: _40  and  _41
REMARK   15  A    between atoms: _46  and  _48
REMARK   16  A    between atoms: _48  and  _49
REMARK   17  A    between atoms: _48  and  _51
REMARK   18  A    between atoms: _51  and  _52
REMARK   19  A    between atoms: _57  and  _59
REMARK   20  A    between atoms: _59  and  _60
REMARK   21  A    between atoms: _63  and  _65
REMARK   22  A    between atoms: _65  and  _66
REMARK   23  A    between atoms: _65  and  _68
REMARK   24  A    between atoms: _68  and  _69
REMARK   25  A    between atoms: _74  and  _76
REMARK   26  A    between atoms: _76  and  _77
REMARK   27  A    between atoms: _76  and  _79
REMARK   28  A    between atoms: _79  and  _80
REMARK   29  A    between atoms: _83  and  _85
REMARK   30  A    between atoms: _85  and  _86
REMARK   31  A    between atoms: _85  and  _88
REMARK   32  A    between atoms: _88  and  _89
REMARK   33  A    between atoms: _89  and  _90
REMARK   34  A    between atoms: _95  and  _97
REMARK   35  A    between atoms: _97  and  _98
REMARK   36  A    between atoms: _97  and  _100
REMARK   37  A    between atoms: _100  and  _101
REMARK   38  A    between atoms: _107  and  _109
REMARK   39  A    between atoms: _120  and  _123
REMARK   40  A    between atoms: _123  and  _124
REMARK   41  A    between atoms: _132  and  _133
REMARK   42  A    between atoms: _141  and  _143
REMARK   43  A    between atoms: _143  and  _144
REMARK   44  A    between atoms: _143  and  _146
REMARK   45  A    between atoms: _146  and  _147
REMARK   46  A    between atoms: _147  and  _148
REMARK   47  A    between atoms: _151  and  _153
REMARK   48  A    between atoms: _153  and  _154
REMARK   49  A    between atoms: _153  and  _156
REMARK   50  A    between atoms: _156  and  _157
REMARK   51  A    between atoms: _162  and  _164
REMARK   52  A    between atoms: _164  and  _165
REMARK   53  A    between atoms: _164  and  _167
REMARK   54  A    between atoms: _167  and  _168
REMARK   55  A    between atoms: _168  and  _169
REMARK   56  A    between atoms: _172  and  _174
REMARK   57  A    between atoms: _174  and  _175
REMARK   58  A    between atoms: _174  and  _177
REMARK   59  A    between atoms: _177  and  _178
REMARK   60  A    between atoms: _181  and  _183
REMARK   61  A    between atoms: _183  and  _184
REMARK   62  A    between atoms: _183  and  _186
REMARK   63  A    between atoms: _186  and  _187
REMARK   64  A    between atoms: _188  and  ZN_413
REMARK   65  A    between atoms: _192  and  _194
REMARK   66  A    between atoms: _194  and  _195
REMARK   67  A    between atoms: _194  and  _197
REMARK   68  A    between atoms: _197  and  _198
REMARK   69  A    between atoms: _201  and  _203
REMARK   70  A    between atoms: _203  and  _204
REMARK   71  A    between atoms: _203  and  _206
REMARK   72  A    between atoms: _209  and  _211
REMARK   73  A    between atoms: _211  and  _212
REMARK   74  A    between atoms: _211  and  _214
REMARK   75  A    between atoms: _214  and  _215
REMARK   76  A    between atoms: _220  and  _222
REMARK   77  A    between atoms: _222  and  _223
REMARK   78  A    between atoms: _222  and  _225
REMARK   79  A    between atoms: _225  and  _226
REMARK   80  A    between atoms: _232  and  _234
REMARK   81  A    between atoms: _234  and  _235
REMARK   82  A    between atoms: _237  and  _239
REMARK   83  A    between atoms: _239  and  _240
REMARK   84  A    between atoms: _239  and  _242
REMARK   85  A    between atoms: _245  and  _247
REMARK   86  A    between atoms: _247  and  _248
REMARK   87  A    between atoms: _247  and  _250
REMARK   88  A    between atoms: _250  and  _251
REMARK   89  A    between atoms: _254  and  _256
REMARK   90  A    between atoms: _256  and  _257
REMARK   91  A    between atoms: _260  and  _262
REMARK   92  A    between atoms: _262  and  _263
REMARK   93  A    between atoms: _262  and  _265
REMARK   94  A    between atoms: _268  and  _270
REMARK   95  A    between atoms: _270  and  _271
REMARK   96  A    between atoms: _270  and  _273
REMARK   97  A    between atoms: _273  and  _274
REMARK   98  A    between atoms: _277  and  _279
REMARK   99  A    between atoms: _279  and  _280
REMARK  100  A    between atoms: _282  and  _284
REMARK  101  A    between atoms: _284  and  _285
REMARK  102  A    between atoms: _287  and  _289
REMARK  103  A    between atoms: _289  and  _290
REMARK  104  A    between atoms: _289  and  _292
REMARK  105  A    between atoms: _292  and  _293
REMARK  106  A    between atoms: _295  and  _297
REMARK  107  A    between atoms: _297  and  _298
REMARK  108  A    between atoms: _297  and  _300
REMARK  109  A    between atoms: _300  and  _301
REMARK  110  A    between atoms: _304  and  _306
REMARK  111  A    between atoms: _306  and  _307
REMARK  112  A    between atoms: _306  and  _309
REMARK  113  A    between atoms: _309  and  _310
REMARK  114  A    between atoms: _313  and  _315
REMARK  115  A    between atoms: _315  and  _316
REMARK  116  A    between atoms: _315  and  _318
REMARK  117  A    between atoms: _318  and  _319
REMARK  118  A    between atoms: _323  and  _324
REMARK  119  A    between atoms: _330  and  _331
REMARK  120  A    between atoms: _336  and  _338
REMARK  121  A    between atoms: _338  and  _339
REMARK  122  A    between atoms: _338  and  _341
REMARK  123  A    between atoms: _341  and  _342
REMARK  124  A    between atoms: _345  and  _347
REMARK  125  A    between atoms: _347  and  _348
REMARK  126  A    between atoms: _347  and  _350
REMARK  127  A    between atoms: _350  and  _351
REMARK  128  A    between atoms: _354  and  _356
REMARK  129  A    between atoms: _356  and  _357
REMARK  130  A    between atoms: _356  and  _359
REMARK  131  A    between atoms: _361  and  _363
REMARK  132  A    between atoms: _363  and  _364
REMARK  133  A    between atoms: _363  and  _366
REMARK  134  A    between atoms: _369  and  _371
REMARK  135  A    between atoms: _371  and  _372
REMARK  136  A    between atoms: _371  and  _374
REMARK  137  A    between atoms: _374  and  _375
REMARK  138  A    between atoms: _385  and  _387
REMARK  139  A    between atoms: _387  and  _388
REMARK  140  A    between atoms: _387  and  _390
REMARK  141  A    between atoms: _390  and  _391
REMARK  142  A    between atoms: _396  and  _398
REMARK  143  A    between atoms: _398  and  _399
REMARK  144  A    between atoms: _398  and  _401
REMARK  145  A    between atoms: _401  and  _402
REMARK  146  A    between atoms: _402  and  _403
REMARK  147  A    between atoms: _403  and  _404
REMARK                            x       y       z     vdW  Elec       q    Type
REMARK                         _______ _______ _______ _____ _____    ______ ____
ROOT
ATOM      1  CA  THR A   5       0.250   0.088  16.106  0.00  0.00    +0.176 C 
ENDROOT
BRANCH   1   2
ATOM      2  C   THR A   5       1.060   1.329  16.406  0.00  0.00    +0.246 C 
ATOM      3  O   THR A   5       0.569   2.270  17.030  0.00  0.00    -0.273 OA
ATOM      4  N   PRO A   6       2.320   1.351  15.954  0.00  0.00    -0.272 N 
ATOM      5  CA  PRO A   6       3.071   2.606  16.012  0.00  0.00    +0.152 C 
ATOM      6  CB  PRO A   6       4.292   2.309  15.143  0.00  0.00    +0.031 C 
ATOM      7  CG  PRO A   6       4.520   0.836  15.370  0.00  0.00    +0.024 C 
ATOM      8  CD  PRO A   6       3.125   0.248  15.397  0.00  0.00    +0.094 C 
BRANCH   5   9
ATOM      9  C   PRO A   6       2.208   3.733  15.447  0.00  0.00    +0.244 C 
ATOM     10  N   PRO A   7       2.244   4.916  16.070  0.00  0.00    -0.272 N 
ATOM     11  CA  PRO A   7       3.157   5.342  17.140  0.00  0.00    +0.152 C 
ATOM     12  CB  PRO A   7       3.118   6.866  17.014  0.00  0.00    +0.031 C 
ATOM     13  CG  PRO A   7       1.738   7.150  16.520  0.00  0.00    +0.024 C 
ATOM     14  CD  PRO A   7       1.440   6.040  15.553  0.00  0.00    +0.094 C 
ATOM     15  O   PRO A   6       1.486   3.521  14.464  0.00  0.00    -0.273 OA
BRANCH  11  16
ATOM     16  C   PRO A   7       2.791   4.902  18.575  0.00  0.00    +0.241 C 
ATOM     17  O   PRO A   7       3.452   5.367  19.503  0.00  0.00    -0.273 OA
ATOM     18  N   LEU A   8       1.781   4.054  18.754  0.00  0.00    -0.297 N 
ATOM     19  H   LEU A   8       1.156   3.837  17.951  0.00  0.00    +0.150 HD
BRANCH  18  20
ATOM     20  CA  LEU A   8       1.522   3.416  20.051  0.00  0.00    +0.149 C 
BRANCH  20  21
ATOM     21  C   LEU A   8       1.155   4.431  21.138  0.00  0.00    +0.241 C 
ATOM     22  O   LEU A   8       1.324   4.178  22.328  0.00  0.00    -0.273 OA
ATOM     23  N   LEU A   9       0.592   5.559  20.712  0.00  0.00    -0.298 N 
ATOM     24  H   LEU A   9       0.375   5.664  19.700  0.00  0.00    +0.150 HD
BRANCH  23  25
ATOM     25  CA  LEU A   9       0.270   6.652  21.623  0.00  0.00    +0.137 C 
BRANCH  25  26
ATOM     26  C   LEU A   9      -0.777   6.240  22.641  0.00  0.00    +0.227 C 
ATOM     27  O   LEU A   9      -1.738   5.539  22.329  0.00  0.00    -0.286 OA
ENDBRANCH  25  26
BRANCH  25  28
ATOM     28  CB  LEU A   9      -0.214   7.871  20.842  0.00  0.00    +0.028 C 
BRANCH  28  29
ATOM     29  CG  LEU A   9       0.857   8.448  19.916  0.00  0.00    +0.002 C 
ATOM     30  CD2 LEU A   9       2.012   9.061  20.708  0.00  0.00    +0.000 C 
ATOM     31  CD1 LEU A   9       0.250   9.483  18.978  0.00  0.00    +0.000 C 
ENDBRANCH  28  29
ENDBRANCH  25  28
ENDBRANCH  23  25
ENDBRANCH  20  21
BRANCH  20  32
ATOM     32  CB  LEU A   8       2.699   2.539  20.485  0.00  0.00    +0.029 C 
BRANCH  32  33
ATOM     33  CG  LEU A   8       3.008   1.367  19.554  0.00  0.00    +0.002 C 
ATOM     34  CD2 LEU A   8       4.341   0.741  19.938  0.00  0.00    +0.000 C 
ATOM     35  CD1 LEU A   8       1.900   0.325  19.551  0.00  0.00    +0.000 C 
ENDBRANCH  32  33
ENDBRANCH  20  32
ENDBRANCH  18  20
ENDBRANCH  11  16
ENDBRANCH   5   9
ENDBRANCH   1   2
BRANCH   1  38
ATOM     36  C   THR A   4      -1.039  -1.058  17.828  0.00  0.00    +0.243 C 
ATOM     37  O   THR A   4      -0.427  -2.112  17.651  0.00  0.00    -0.273 OA
ATOM     38  N   THR A   5      -0.842   0.018  17.071  0.00  0.00    -0.295 N 
ATOM     39  H   THR A   5      -1.483   0.831  17.170  0.00  0.00    +0.150 HD
BRANCH  36  40
ATOM     40  CA  THR A   4      -2.065  -0.943  18.948  0.00  0.00    +0.176 C 
BRANCH  40  43
ATOM     41  C   LEU A   3      -2.267   1.311  19.787  0.00  0.00    +0.241 C 
ATOM     42  O   LEU A   3      -1.260   1.156  20.478  0.00  0.00    -0.273 OA
ATOM     43  N   THR A   4      -2.729   0.356  18.988  0.00  0.00    -0.295 N 
ATOM     44  H   THR A   4      -3.562   0.534  18.392  0.00  0.00    +0.150 HD
BRANCH  41  45
ATOM     45  CA  LEU A   3      -2.997   2.649  19.769  0.00  0.00    +0.149 C 
BRANCH  45  48
ATOM     46  C   SER A   2      -3.520   2.507  22.108  0.00  0.00    +0.243 C 
ATOM     47  O   SER A   2      -4.306   1.567  21.935  0.00  0.00    -0.273 OA
ATOM     48  N   LEU A   3      -2.984   3.198  21.114  0.00  0.00    -0.297 N 
ATOM     49  H   LEU A   3      -2.556   4.128  21.295  0.00  0.00    +0.150 HD
BRANCH  46  50
ATOM     50  CA  SER A   2      -3.075   2.918  23.493  0.00  0.00    +0.178 C 
BRANCH  50  53
ATOM     51  C   GLY A   1      -4.298   2.934  25.590  0.00  0.00    +0.240 C 
ATOM     52  O   GLY A   1      -4.214   4.169  25.720  0.00  0.00    -0.274 OA
ATOM     53  N   SER A   2      -3.902   2.281  24.507  0.00  0.00    -0.295 N 
ATOM     54  H   SER A   2      -4.189   1.290  24.379  0.00  0.00    +0.150 HD
BRANCH  51  55
ATOM     55  CA  GLY A   1      -4.876   2.065  26.681  0.00  0.00    +0.169 C 
BRANCH  55  56
ATOM     56  N   GLY A   1      -5.971   2.693  27.396  0.00  0.00    -0.236 NA
ATOM     57  H   GLY A   1      -6.576   3.385  26.910  0.00  0.00    +0.142 HD
ENDBRANCH  55  56
ENDBRANCH  51  55
ENDBRANCH  50  53
BRANCH  50  58
ATOM     58  CB  SER A   2      -1.601   2.527  23.669  0.00  0.00    +0.166 C 
BRANCH  58  59
ATOM     59  OG  SER A   2      -1.351   1.199  23.232  0.00  0.00    -0.380 OA
ATOM     60  H   SER A   2      -1.581   1.120  22.272  0.00  0.00    +0.211 HD
ENDBRANCH  58  59
ENDBRANCH  50  58
ENDBRANCH  46  50
ENDBRANCH  45  48
BRANCH  45  61
ATOM     61  CB  LEU A   3      -2.267   3.569  18.797  0.00  0.00    +0.029 C 
BRANCH  61  62
ATOM     62  CG  LEU A   3      -2.724   5.030  18.759  0.00  0.00    +0.002 C 
ATOM     63  CD2 LEU A   3      -4.200   5.163  18.429  0.00  0.00    +0.000 C 
ATOM     64  CD1 LEU A   3      -1.875   5.811  17.761  0.00  0.00    +0.000 C 
ENDBRANCH  61  62
ENDBRANCH  45  61
ENDBRANCH  41  45
ENDBRANCH  40  43
BRANCH  40  65
ATOM     65  CB  THR A   4      -3.057  -2.091  18.787  0.00  0.00    +0.137 C 
ATOM     66  CG2 THR A   4      -4.133  -2.071  19.878  0.00  0.00    +0.034 C 
BRANCH  65  67
ATOM     67  OG1 THR A   4      -3.652  -2.008  17.485  0.00  0.00    -0.382 OA
ATOM     68  HG1 THR A   4      -4.298  -2.749  17.371  0.00  0.00    +0.210 HD
ENDBRANCH  65  67
ENDBRANCH  40  65
ENDBRANCH  36  40
ENDBRANCH   1  38
BRANCH   1  69
ATOM     69  CB  THR A   5      -0.238   0.203  14.643  0.00  0.00    +0.137 C 
ATOM     70  CG2 THR A   5      -1.300  -0.821  14.335  0.00  0.00    +0.034 C 
BRANCH  69  71
ATOM     71  OG1 THR A   5      -0.760   1.519  14.407  0.00  0.00    -0.382 OA
ATOM     72  HG1 THR A   5      -1.071   1.586  13.469  0.00  0.00    +0.210 HD
ENDBRANCH  69  71
ENDBRANCH   1  69
TORSDOF 28
REMARK  Name = ../refined-set-2016/4rux/4rux_pocket.pdb
REMARK  147 active torsions:
REMARK  status: ('A' for Active; 'I' for Inactive)
REMARK    1  A    between atoms: _1  and  _3
REMARK    2  A    between atoms: _3  and  _4
REMARK    3  A    between atoms: _3  and  _6
REMARK    4  A    between atoms: _6  and  _7
REMARK    5  A    between atoms: _17  and  _19
REMARK    6  A    between atoms: _19  and  _20
REMARK    7  A    between atoms: _19  and  _22
REMARK    8  A    between atoms: _22  and  _23
REMARK    9  A    between atoms: _28  and  _29
REMARK   10  A    between atoms: _31  and  _33
REMARK   11  A    between atoms: _33  and  _34
REMARK   12  A    between atoms: _33  and  _36
REMARK   13  A    between atoms: _36  and  _37
REMARK   14  A    between atoms: _40  and  _41
REMARK   15  A    between atoms: _46  and  _48
REMARK   16  A    between atoms: _48  and  _49
REMARK   17  A    between atoms: _48  and  _51
REMARK   18  A    between atoms: _51  and  _52
REMARK   19  A    between atoms: _57  and  _59
REMARK   20  A    between atoms: _59  and  _60
REMARK   21  A    between atoms: _63  and  _65
REMARK   22  A    between atoms: _65  and  _66
REMARK   23  A    between atoms: _65  and  _68
REMARK   24  A    between atoms: _68  and  _69
REMARK   25  A    between atoms: _74  and  _76
REMARK   26  A    between atoms: _76  and  _77
REMARK   27  A    between atoms: _76  and  _79
REMARK   28  A    between atoms: _79  and  _80
REMARK   29  A    between atoms: _83  and  _85
REMARK   30  A    between atoms: _85  and  _86
REMARK   31  A    between atoms: _85  and  _88
REMARK   32  A    between atoms: _88  and  _89
REMARK   33  A    between atoms: _89  and  _90
REMARK   34  A    between atoms: _95  and  _97
REMARK   35  A    between atoms: _97  and  _98
REMARK   36  A    between atoms: _97  and  _100
REMARK   37  A    between atoms: _100  and  _101
REMARK   38  A    between atoms: _107  and  _109
REMARK   39  A    between atoms: _120  and  _123
REMARK   40  A    between atoms: _123  and  _124
REMARK   41  A    between atoms: _132  and  _133
REMARK   42  A    between atoms: _141  and  _143
REMARK   43  A    between atoms: _143  and  _144
REMARK   44  A    between atoms: _143  and  _146
REMARK   45  A    between atoms: _146  and  _147
REMARK   46  A    between atoms: _147  and  _148
REMARK   47  A    between atoms: _151  and  _153
REMARK   48  A    between atoms: _153  and  _154
REMARK   49  A    between atoms: _153  and  _156
REMARK   50  A    between atoms: _156  and  _157
REMARK   51  A    between atoms: _162  and  _164
REMARK   52  A    between atoms: _164  and  _165
REMARK   53  A    between atoms: _164  and  _167
REMARK   54  A    between atoms: _167  and  _168
REMARK   55  A    between atoms: _168  and  _169
REMARK   56  A    between atoms: _172  and  _174
REMARK   57  A    between atoms: _174  and  _175
REMARK   58  A    between atoms: _174  and  _177
REMARK   59  A    between atoms: _177  and  _178
REMARK   60  A    between atoms: _181  and  _183
REMARK   61  A    between atoms: _183  and  _184
REMARK   62  A    between atoms: _183  and  _186
REMARK   63  A    between atoms: _186  and  _187
REMARK   64  A    between atoms: _188  and  ZN_413
REMARK   65  A    between atoms: _192  and  _194
REMARK   66  A    between atoms: _194  and  _195
REMARK   67  A    between atoms: _194  and  _197
REMARK   68  A    between atoms: _197  and  _198
REMARK   69  A    between atoms: _201  and  _203
REMARK   70  A    between atoms: _203  and  _204
REMARK   71  A    between atoms: _203  and  _206
REMARK   72  A    between atoms: _209  and  _211
REMARK   73  A    between atoms: _211  and  _212
REMARK   74  A    between atoms: _211  and  _214
REMARK   75  A    between atoms: _214  and  _215
REMARK   76  A    between atoms: _220  and  _222
REMARK   77  A    between atoms: _222  and  _223
REMARK   78  A    between atoms: _222  and  _225
REMARK   79  A    between atoms: _225  and  _226
REMARK   80  A    between atoms: _232  and  _234
REMARK   81  A    between atoms: _234  and  _235
REMARK   82  A    between atoms: _237  and  _239
REMARK   83  A    between atoms: _239  and  _240
REMARK   84  A    between atoms: _239  and  _242
REMARK   85  A    between atoms: _245  and  _247
REMARK   86  A    between atoms: _247  and  _248
REMARK   87  A    between atoms: _247  and  _250
REMARK   88  A    between atoms: _250  and  _251
REMARK   89  A    between atoms: _254  and  _256
REMARK   90  A    between atoms: _256  and  _257
REMARK   91  A    between atoms: _260  and  _262
REMARK   92  A    between atoms: _262  and  _263
REMARK   93  A    between atoms: _262  and  _265
REMARK   94  A    between atoms: _268  and  _270
REMARK   95  A    between atoms: _270  and  _271
REMARK   96  A    between atoms: _270  and  _273
REMARK   97  A    between atoms: _273  and  _274
REMARK   98  A    between atoms: _277  and  _279
REMARK   99  A    between atoms: _279  and  _280
REMARK  100  A    between atoms: _282  and  _284
REMARK  101  A    between atoms: _284  and  _285
REMARK  102  A    between atoms: _287  and  _289
REMARK  103  A    between atoms: _289  and  _290
REMARK  104  A    between atoms: _289  and  _292
REMARK  105  A    between atoms: _292  and  _293
REMARK  106  A    between atoms: _295  and  _297
REMARK  107  A    between atoms: _297  and  _298
REMARK  108  A    between atoms: _297  and  _300
REMARK  109  A    between atoms: _300  and  _301
REMARK  110  A    between atoms: _304  and  _306
REMARK  111  A    between atoms: _306  and  _307
REMARK  112  A    between atoms: _306  and  _309
REMARK  113  A    between atoms: _309  and  _310
REMARK  114  A    between atoms: _313  and  _315
REMARK  115  A    between atoms: _315  and  _316
REMARK  116  A    between atoms: _315  and  _318
REMARK  117  A    between atoms: _318  and  _319
REMARK  118  A    between atoms: _323  and  _324
REMARK  119  A    between atoms: _330  and  _331
REMARK  120  A    between atoms: _336  and  _338
REMARK  121  A    between atoms: _338  and  _339
REMARK  122  A    between atoms: _338  and  _341
REMARK  123  A    between atoms: _341  and  _342
REMARK  124  A    between atoms: _345  and  _347
REMARK  125  A    between atoms: _347  and  _348
REMARK  126  A    between atoms: _347  and  _350
REMARK  127  A    between atoms: _350  and  _351
REMARK  128  A    between atoms: _354  and  _356
REMARK  129  A    between atoms: _356  and  _357
REMARK  130  A    between atoms: _356  and  _359
REMARK  131  A    between atoms: _361  and  _363
REMARK  132  A    between atoms: _363  and  _364
REMARK  133  A    between atoms: _363  and  _366
REMARK  134  A    between atoms: _369  and  _371
REMARK  135  A    between atoms: _371  and  _372
REMARK  136  A    between atoms: _371  and  _374
REMARK  137  A    between atoms: _374  and  _375
REMARK  138  A    between atoms: _385  and  _387
REMARK  139  A    between atoms: _387  and  _388
REMARK  140  A    between atoms: _387  and  _390
REMARK  141  A    between atoms: _390  and  _391
REMARK  142  A    between atoms: _396  and  _398
REMARK  143  A    between atoms: _398  and  _399
REMARK  144  A    between atoms: _398  and  _401
REMARK  145  A    between atoms: _401  and  _402
REMARK  146  A    between atoms: _402  and  _403
REMARK  147  A    between atoms: _403  and  _404
REMARK                            x       y       z     vdW  Elec       q    Type
REMARK                         _______ _______ _______ _____ _____    ______ ____
ROOT
ATOM      1  C   CYS A   1      -5.923   7.577  23.831  0.00  0.00    +0.239 C 
ATOM      2  N   VAL A   2      -6.061   6.284  24.123  0.00  0.00    -0.298 N 
ATOM      3  H   VAL A   2      -5.280   5.776  24.585  0.00  0.00    +0.150 HD
ATOM      4  O   CYS A   1      -6.865   8.278  23.468  0.00  0.00    -0.274 OA
ENDROOT
BRANCH   1   5
ATOM      5  CA  CYS A   1      -4.542   8.195  23.951  0.00  0.00    +0.156 C 
BRANCH   5   6
ATOM      6  N   CYS A   1      -3.500   7.205  24.138  0.00  0.00    -0.237 NA
ATOM      7  H   CYS A   1      -3.447   6.405  23.476  0.00  0.00    +0.142 HD
ENDBRANCH   5   6
BRANCH   5   8
ATOM      8  CB  CYS A   1      -4.264   8.999  22.675  0.00  0.00    +0.095 C 
ATOM      9  SG  CYS A   1      -4.211   8.007  21.163  0.00  0.00    -0.080 S 
ENDBRANCH   5   8
ENDBRANCH   1   5
BRANCH   2  10
ATOM     10  CA  VAL A   2      -7.297   5.569  23.803  0.00  0.00    +0.137 C 
BRANCH  10  11
ATOM     11  CB  VAL A   2      -7.020   4.304  22.943  0.00  0.00    +0.026 C 
ATOM     12  CG2 VAL A   2      -8.321   3.603  22.599  0.00  0.00    +0.002 C 
ATOM     13  CG1 VAL A   2      -6.243   4.663  21.674  0.00  0.00    +0.002 C 
ENDBRANCH  10  11
BRANCH  10  14
ATOM     14  C   VAL A   2      -8.079   5.117  25.028  0.00  0.00    +0.227 C 
ATOM     15  O   VAL A   2      -7.521   4.477  25.921  0.00  0.00    -0.286 OA
ENDBRANCH  10  14
ENDBRANCH   2  10
TORSDOF 6
REMARK  Name = ../refined-set-2016/4rux/4rux_pocket.pdb
REMARK  147 active torsions:
REMARK  status: ('A' for Active; 'I' for Inactive)
REMARK    1  A    between atoms: _1  and  _3
REMARK    2  A    between atoms: _3  and  _4
REMARK    3  A    between atoms: _3  and  _6
REMARK    4  A    between atoms: _6  and  _7
REMARK    5  A    between atoms: _17  and  _19
REMARK    6  A    between atoms: _19  and  _20
REMARK    7  A    between atoms: _19  and  _22
REMARK    8  A    between atoms: _22  and  _23
REMARK    9  A    between atoms: _28  and  _29
REMARK   10  A    between atoms: _31  and  _33
REMARK   11  A    between atoms: _33  and  _34
REMARK   12  A    between atoms: _33  and  _36
REMARK   13  A    between atoms: _36  and  _37
REMARK   14  A    between atoms: _40  and  _41
REMARK   15  A    between atoms: _46  and  _48
REMARK   16  A    between atoms: _48  and  _49
REMARK   17  A    between atoms: _48  and  _51
REMARK   18  A    between atoms: _51  and  _52
REMARK   19  A    between atoms: _57  and  _59
REMARK   20  A    between atoms: _59  and  _60
REMARK   21  A    between atoms: _63  and  _65
REMARK   22  A    between atoms: _65  and  _66
REMARK   23  A    between atoms: _65  and  _68
REMARK   24  A    between atoms: _68  and  _69
REMARK   25  A    between atoms: _74  and  _76
REMARK   26  A    between atoms: _76  and  _77
REMARK   27  A    between atoms: _76  and  _79
REMARK   28  A    between atoms: _79  and  _80
REMARK   29  A    between atoms: _83  and  _85
REMARK   30  A    between atoms: _85  and  _86
REMARK   31  A    between atoms: _85  and  _88
REMARK   32  A    between atoms: _88  and  _89
REMARK   33  A    between atoms: _89  and  _90
REMARK   34  A    between atoms: _95  and  _97
REMARK   35  A    between atoms: _97  and  _98
REMARK   36  A    between atoms: _97  and  _100
REMARK   37  A    between atoms: _100  and  _101
REMARK   38  A    between atoms: _107  and  _109
REMARK   39  A    between atoms: _120  and  _123
REMARK   40  A    between atoms: _123  and  _124
REMARK   41  A    between atoms: _132  and  _133
REMARK   42  A    between atoms: _141  and  _143
REMARK   43  A    between atoms: _143  and  _144
REMARK   44  A    between atoms: _143  and  _146
REMARK   45  A    between atoms: _146  and  _147
REMARK   46  A    between atoms: _147  and  _148
REMARK   47  A    between atoms: _151  and  _153
REMARK   48  A    between atoms: _153  and  _154
REMARK   49  A    between atoms: _153  and  _156
REMARK   50  A    between atoms: _156  and  _157
REMARK   51  A    between atoms: _162  and  _164
REMARK   52  A    between atoms: _164  and  _165
REMARK   53  A    between atoms: _164  and  _167
REMARK   54  A    between atoms: _167  and  _168
REMARK   55  A    between atoms: _168  and  _169
REMARK   56  A    between atoms: _172  and  _174
REMARK   57  A    between atoms: _174  and  _175
REMARK   58  A    between atoms: _174  and  _177
REMARK   59  A    between atoms: _177  and  _178
REMARK   60  A    between atoms: _181  and  _183
REMARK   61  A    between atoms: _183  and  _184
REMARK   62  A    between atoms: _183  and  _186
REMARK   63  A    between atoms: _186  and  _187
REMARK   64  A    between atoms: _188  and  ZN_413
REMARK   65  A    between atoms: _192  and  _194
REMARK   66  A    between atoms: _194  and  _195
REMARK   67  A    between atoms: _194  and  _197
REMARK   68  A    between atoms: _197  and  _198
REMARK   69  A    between atoms: _201  and  _203
REMARK   70  A    between atoms: _203  and  _204
REMARK   71  A    between atoms: _203  and  _206
REMARK   72  A    between atoms: _209  and  _211
REMARK   73  A    between atoms: _211  and  _212
REMARK   74  A    between atoms: _211  and  _214
REMARK   75  A    between atoms: _214  and  _215
REMARK   76  A    between atoms: _220  and  _222
REMARK   77  A    between atoms: _222  and  _223
REMARK   78  A    between atoms: _222  and  _225
REMARK   79  A    between atoms: _225  and  _226
REMARK   80  A    between atoms: _232  and  _234
REMARK   81  A    between atoms: _234  and  _235
REMARK   82  A    between atoms: _237  and  _239
REMARK   83  A    between atoms: _239  and  _240
REMARK   84  A    between atoms: _239  and  _242
REMARK   85  A    between atoms: _245  and  _247
REMARK   86  A    between atoms: _247  and  _248
REMARK   87  A    between atoms: _247  and  _250
REMARK   88  A    between atoms: _250  and  _251
REMARK   89  A    between atoms: _254  and  _256
REMARK   90  A    between atoms: _256  and  _257
REMARK   91  A    between atoms: _260  and  _262
REMARK   92  A    between atoms: _262  and  _263
REMARK   93  A    between atoms: _262  and  _265
REMARK   94  A    between atoms: _268  and  _270
REMARK   95  A    between atoms: _270  and  _271
REMARK   96  A    between atoms: _270  and  _273
REMARK   97  A    between atoms: _273  and  _274
REMARK   98  A    between atoms: _277  and  _279
REMARK   99  A    between atoms: _279  and  _280
REMARK  100  A    between atoms: _282  and  _284
REMARK  101  A    between atoms: _284  and  _285
REMARK  102  A    between atoms: _287  and  _289
REMARK  103  A    between atoms: _289  and  _290
REMARK  104  A    between atoms: _289  and  _292
REMARK  105  A    between atoms: _292  and  _293
REMARK  106  A    between atoms: _295  and  _297
REMARK  107  A    between atoms: _297  and  _298
REMARK  108  A    between atoms: _297  and  _300
REMARK  109  A    between atoms: _300  and  _301
REMARK  110  A    between atoms: _304  and  _306
REMARK  111  A    between atoms: _306  and  _307
REMARK  112  A    between atoms: _306  and  _309
REMARK  113  A    between atoms: _309  and  _310
REMARK  114  A    between atoms: _313  and  _315
REMARK  115  A    between atoms: _315  and  _316
REMARK  116  A    between atoms: _315  and  _318
REMARK  117  A    between atoms: _318  and  _319
REMARK  118  A    between atoms: _323  and  _324
REMARK  119  A    between atoms: _330  and  _331
REMARK  120  A    between atoms: _336  and  _338
REMARK  121  A    between atoms: _338  and  _339
REMARK  122  A    between atoms: _338  and  _341
REMARK  123  A    between atoms: _341  and  _342
REMARK  124  A    between atoms: _345  and  _347
REMARK  125  A    between atoms: _347  and  _348
REMARK  126  A    between atoms: _347  and  _350
REMARK  127  A    between atoms: _350  and  _351
REMARK  128  A    between atoms: _354  and  _356
REMARK  129  A    between atoms: _356  and  _357
REMARK  130  A    between atoms: _356  and  _359
REMARK  131  A    between atoms: _361  and  _363
REMARK  132  A    between atoms: _363  and  _364
REMARK  133  A    between atoms: _363  and  _366
REMARK  134  A    between atoms: _369  and  _371
REMARK  135  A    between atoms: _371  and  _372
REMARK  136  A    between atoms: _371  and  _374
REMARK  137  A    between atoms: _374  and  _375
REMARK  138  A    between atoms: _385  and  _387
REMARK  139  A    between atoms: _387  and  _388
REMARK  140  A    between atoms: _387  and  _390
REMARK  141  A    between atoms: _390  and  _391
REMARK  142  A    between atoms: _396  and  _398
REMARK  143  A    between atoms: _398  and  _399
REMARK  144  A    between atoms: _398  and  _401
REMARK  145  A    between atoms: _401  and  _402
REMARK  146  A    between atoms: _402  and  _403
REMARK  147  A    between atoms: _403  and  _404
REMARK                            x       y       z     vdW  Elec       q    Type
REMARK                         _______ _______ _______ _____ _____    ______ ____
ROOT
ATOM      1  CG  TRP A   1      -8.790   0.106  24.040  0.00  0.00    -0.002 A 
ATOM      2  CD1 TRP A   1      -7.575   0.691  24.226  0.00  0.00    +0.068 A 
ATOM      3  NE1 TRP A   1      -6.853   0.666  23.047  0.00  0.00    -0.352 N 
ATOM      4  HE1 TRP A   1      -5.891   1.040  22.916  0.00  0.00    +0.166 HD
ATOM      5  CE2 TRP A   1      -7.616   0.066  22.080  0.00  0.00    +0.056 A 
ATOM      6  CZ2 TRP A   1      -7.337  -0.183  20.739  0.00  0.00    +0.017 A 
ATOM      7  CH2 TRP A   1      -8.300  -0.814  20.007  0.00  0.00    +0.001 A 
ATOM      8  CZ3 TRP A   1      -9.532  -1.181  20.568  0.00  0.00    +0.000 A 
ATOM      9  CE3 TRP A   1      -9.816  -0.921  21.888  0.00  0.00    +0.001 A 
ATOM     10  CD2 TRP A   1      -8.845  -0.288  22.671  0.00  0.00    +0.013 A 
ENDROOT
BRANCH   1  11
ATOM     11  CB  TRP A   1      -9.889  -0.010  25.012  0.00  0.00    +0.053 C 
BRANCH  11  12
ATOM     12  CA  TRP A   1     -10.902   1.136  24.828  0.00  0.00    +0.137 C 
BRANCH  12  13
ATOM     13  N   TRP A   1     -10.454   2.338  25.511  0.00  0.00    -0.239 NA
ATOM     14  H   TRP A   1      -9.829   2.249  26.337  0.00  0.00    +0.142 HD
ENDBRANCH  12  13
BRANCH  12  15
ATOM     15  C   TRP A   1     -12.264   0.717  25.331  0.00  0.00    +0.224 C 
ATOM     16  O   TRP A   1     -12.495   0.675  26.538  0.00  0.00    -0.287 OA
ENDBRANCH  12  15
ENDBRANCH  11  12
ENDBRANCH   1  11
TORSDOF 4
REMARK  Name = ../refined-set-2016/4rux/4rux_pocket.pdb
REMARK  147 active torsions:
REMARK  status: ('A' for Active; 'I' for Inactive)
REMARK    1  A    between atoms: _1  and  _3
REMARK    2  A    between atoms: _3  and  _4
REMARK    3  A    between atoms: _3  and  _6
REMARK    4  A    between atoms: _6  and  _7
REMARK    5  A    between atoms: _17  and  _19
REMARK    6  A    between atoms: _19  and  _20
REMARK    7  A    between atoms: _19  and  _22
REMARK    8  A    between atoms: _22  and  _23
REMARK    9  A    between atoms: _28  and  _29
REMARK   10  A    between atoms: _31  and  _33
REMARK   11  A    between atoms: _33  and  _34
REMARK   12  A    between atoms: _33  and  _36
REMARK   13  A    between atoms: _36  and  _37
REMARK   14  A    between atoms: _40  and  _41
REMARK   15  A    between atoms: _46  and  _48
REMARK   16  A    between atoms: _48  and  _49
REMARK   17  A    between atoms: _48  and  _51
REMARK   18  A    between atoms: _51  and  _52
REMARK   19  A    between atoms: _57  and  _59
REMARK   20  A    between atoms: _59  and  _60
REMARK   21  A    between atoms: _63  and  _65
REMARK   22  A    between atoms: _65  and  _66
REMARK   23  A    between atoms: _65  and  _68
REMARK   24  A    between atoms: _68  and  _69
REMARK   25  A    between atoms: _74  and  _76
REMARK   26  A    between atoms: _76  and  _77
REMARK   27  A    between atoms: _76  and  _79
REMARK   28  A    between atoms: _79  and  _80
REMARK   29  A    between atoms: _83  and  _85
REMARK   30  A    between atoms: _85  and  _86
REMARK   31  A    between atoms: _85  and  _88
REMARK   32  A    between atoms: _88  and  _89
REMARK   33  A    between atoms: _89  and  _90
REMARK   34  A    between atoms: _95  and  _97
REMARK   35  A    between atoms: _97  and  _98
REMARK   36  A    between atoms: _97  and  _100
REMARK   37  A    between atoms: _100  and  _101
REMARK   38  A    between atoms: _107  and  _109
REMARK   39  A    between atoms: _120  and  _123
REMARK   40  A    between atoms: _123  and  _124
REMARK   41  A    between atoms: _132  and  _133
REMARK   42  A    between atoms: _141  and  _143
REMARK   43  A    between atoms: _143  and  _144
REMARK   44  A    between atoms: _143  and  _146
REMARK   45  A    between atoms: _146  and  _147
REMARK   46  A    between atoms: _147  and  _148
REMARK   47  A    between atoms: _151  and  _153
REMARK   48  A    between atoms: _153  and  _154
REMARK   49  A    between atoms: _153  and  _156
REMARK   50  A    between atoms: _156  and  _157
REMARK   51  A    between atoms: _162  and  _164
REMARK   52  A    between atoms: _164  and  _165
REMARK   53  A    between atoms: _164  and  _167
REMARK   54  A    between atoms: _167  and  _168
REMARK   55  A    between atoms: _168  and  _169
REMARK   56  A    between atoms: _172  and  _174
REMARK   57  A    between atoms: _174  and  _175
REMARK   58  A    between atoms: _174  and  _177
REMARK   59  A    between atoms: _177  and  _178
REMARK   60  A    between atoms: _181  and  _183
REMARK   61  A    between atoms: _183  and  _184
REMARK   62  A    between atoms: _183  and  _186
REMARK   63  A    between atoms: _186  and  _187
REMARK   64  A    between atoms: _188  and  ZN_413
REMARK   65  A    between atoms: _192  and  _194
REMARK   66  A    between atoms: _194  and  _195
REMARK   67  A    between atoms: _194  and  _197
REMARK   68  A    between atoms: _197  and  _198
REMARK   69  A    between atoms: _201  and  _203
REMARK   70  A    between atoms: _203  and  _204
REMARK   71  A    between atoms: _203  and  _206
REMARK   72  A    between atoms: _209  and  _211
REMARK   73  A    between atoms: _211  and  _212
REMARK   74  A    between atoms: _211  and  _214
REMARK   75  A    between atoms: _214  and  _215
REMARK   76  A    between atoms: _220  and  _222
REMARK   77  A    between atoms: _222  and  _223
REMARK   78  A    between atoms: _222  and  _225
REMARK   79  A    between atoms: _225  and  _226
REMARK   80  A    between atoms: _232  and  _234
REMARK   81  A    between atoms: _234  and  _235
REMARK   82  A    between atoms: _237  and  _239
REMARK   83  A    between atoms: _239  and  _240
REMARK   84  A    between atoms: _239  and  _242
REMARK   85  A    between atoms: _245  and  _247
REMARK   86  A    between atoms: _247  and  _248
REMARK   87  A    between atoms: _247  and  _250
REMARK   88  A    between atoms: _250  and  _251
REMARK   89  A    between atoms: _254  and  _256
REMARK   90  A    between atoms: _256  and  _257
REMARK   91  A    between atoms: _260  and  _262
REMARK   92  A    between atoms: _262  and  _263
REMARK   93  A    between atoms: _262  and  _265
REMARK   94  A    between atoms: _268  and  _270
REMARK   95  A    between atoms: _270  and  _271
REMARK   96  A    between atoms: _270  and  _273
REMARK   97  A    between atoms: _273  and  _274
REMARK   98  A    between atoms: _277  and  _279
REMARK   99  A    between atoms: _279  and  _280
REMARK  100  A    between atoms: _282  and  _284
REMARK  101  A    between atoms: _284  and  _285
REMARK  102  A    between atoms: _287  and  _289
REMARK  103  A    between atoms: _289  and  _290
REMARK  104  A    between atoms: _289  and  _292
REMARK  105  A    between atoms: _292  and  _293
REMARK  106  A    between atoms: _295  and  _297
REMARK  107  A    between atoms: _297  and  _298
REMARK  108  A    between atoms: _297  and  _300
REMARK  109  A    between atoms: _300  and  _301
REMARK  110  A    between atoms: _304  and  _306
REMARK  111  A    between atoms: _306  and  _307
REMARK  112  A    between atoms: _306  and  _309
REMARK  113  A    between atoms: _309  and  _310
REMARK  114  A    between atoms: _313  and  _315
REMARK  115  A    between atoms: _315  and  _316
REMARK  116  A    between atoms: _315  and  _318
REMARK  117  A    between atoms: _318  and  _319
REMARK  118  A    between atoms: _323  and  _324
REMARK  119  A    between atoms: _330  and  _331
REMARK  120  A    between atoms: _336  and  _338
REMARK  121  A    between atoms: _338  and  _339
REMARK  122  A    between atoms: _338  and  _341
REMARK  123  A    between atoms: _341  and  _342
REMARK  124  A    between atoms: _345  and  _347
REMARK  125  A    between atoms: _347  and  _348
REMARK  126  A    between atoms: _347  and  _350
REMARK  127  A    between atoms: _350  and  _351
REMARK  128  A    between atoms: _354  and  _356
REMARK  129  A    between atoms: _356  and  _357
REMARK  130  A    between atoms: _356  and  _359
REMARK  131  A    between atoms: _361  and  _363
REMARK  132  A    between atoms: _363  and  _364
REMARK  133  A    between atoms: _363  and  _366
REMARK  134  A    between atoms: _369  and  _371
REMARK  135  A    between atoms: _371  and  _372
REMARK  136  A    between atoms: _371  and  _374
REMARK  137  A    between atoms: _374  and  _375
REMARK  138  A    between atoms: _385  and  _387
REMARK  139  A    between atoms: _387  and  _388
REMARK  140  A    between atoms: _387  and  _390
REMARK  141  A    between atoms: _390  and  _391
REMARK  142  A    between atoms: _396  and  _398
REMARK  143  A    between atoms: _398  and  _399
REMARK  144  A    between atoms: _398  and  _401
REMARK  145  A    between atoms: _401  and  _402
REMARK  146  A    between atoms: _402  and  _403
REMARK  147  A    between atoms: _403  and  _404
REMARK                            x       y       z     vdW  Elec       q    Type
REMARK                         _______ _______ _______ _____ _____    ______ ____
ROOT
ATOM      1  CB  ASN A   1      -2.059  -7.156  10.310  0.00  0.00    +0.110 C 
ENDROOT
BRANCH   1   2
ATOM      2  CG  ASN A   1      -3.553  -7.289  10.136  0.00  0.00    +0.221 C 
ATOM      3  OD1 ASN A   1      -4.180  -8.210  10.658  0.00  0.00    -0.275 OA
ATOM      4  ND2 ASN A   1      -4.144  -6.352   9.402  0.00  0.00    -0.329 N 
ATOM      5 HD21 ASN A   1      -5.173  -6.381   9.252  0.00  0.00    +0.145 HD
ATOM      6 HD22 ASN A   1      -3.578  -5.590   8.978  0.00  0.00    +0.145 HD
ENDBRANCH   1   2
BRANCH   1   7
ATOM      7  CA  ASN A   1      -1.517  -8.021  11.451  0.00  0.00    +0.142 C 
BRANCH   7   8
ATOM      8  N   ASN A   1      -1.803  -9.425  11.204  0.00  0.00    -0.239 NA
ATOM      9  H   ASN A   1      -2.711  -9.688  10.770  0.00  0.00    +0.142 HD
ENDBRANCH   7   8
BRANCH   7  10
ATOM     10  C   ASN A   1      -2.064  -7.571  12.806  0.00  0.00    +0.225 C 
ATOM     11  O   ASN A   1      -2.714  -6.529  12.920  0.00  0.00    -0.287 OA
ENDBRANCH   7  10
ENDBRANCH   1   7
TORSDOF 4
REMARK  Name = ../refined-set-2016/4rux/4rux_pocket.pdb
REMARK  147 active torsions:
REMARK  status: ('A' for Active; 'I' for Inactive)
REMARK    1  A    between atoms: _1  and  _3
REMARK    2  A    between atoms: _3  and  _4
REMARK    3  A    between atoms: _3  and  _6
REMARK    4  A    between atoms: _6  and  _7
REMARK    5  A    between atoms: _17  and  _19
REMARK    6  A    between atoms: _19  and  _20
REMARK    7  A    between atoms: _19  and  _22
REMARK    8  A    between atoms: _22  and  _23
REMARK    9  A    between atoms: _28  and  _29
REMARK   10  A    between atoms: _31  and  _33
REMARK   11  A    between atoms: _33  and  _34
REMARK   12  A    between atoms: _33  and  _36
REMARK   13  A    between atoms: _36  and  _37
REMARK   14  A    between atoms: _40  and  _41
REMARK   15  A    between atoms: _46  and  _48
REMARK   16  A    between atoms: _48  and  _49
REMARK   17  A    between atoms: _48  and  _51
REMARK   18  A    between atoms: _51  and  _52
REMARK   19  A    between atoms: _57  and  _59
REMARK   20  A    between atoms: _59  and  _60
REMARK   21  A    between atoms: _63  and  _65
REMARK   22  A    between atoms: _65  and  _66
REMARK   23  A    between atoms: _65  and  _68
REMARK   24  A    between atoms: _68  and  _69
REMARK   25  A    between atoms: _74  and  _76
REMARK   26  A    between atoms: _76  and  _77
REMARK   27  A    between atoms: _76  and  _79
REMARK   28  A    between atoms: _79  and  _80
REMARK   29  A    between atoms: _83  and  _85
REMARK   30  A    between atoms: _85  and  _86
REMARK   31  A    between atoms: _85  and  _88
REMARK   32  A    between atoms: _88  and  _89
REMARK   33  A    between atoms: _89  and  _90
REMARK   34  A    between atoms: _95  and  _97
REMARK   35  A    between atoms: _97  and  _98
REMARK   36  A    between atoms: _97  and  _100
REMARK   37  A    between atoms: _100  and  _101
REMARK   38  A    between atoms: _107  and  _109
REMARK   39  A    between atoms: _120  and  _123
REMARK   40  A    between atoms: _123  and  _124
REMARK   41  A    between atoms: _132  and  _133
REMARK   42  A    between atoms: _141  and  _143
REMARK   43  A    between atoms: _143  and  _144
REMARK   44  A    between atoms: _143  and  _146
REMARK   45  A    between atoms: _146  and  _147
REMARK   46  A    between atoms: _147  and  _148
REMARK   47  A    between atoms: _151  and  _153
REMARK   48  A    between atoms: _153  and  _154
REMARK   49  A    between atoms: _153  and  _156
REMARK   50  A    between atoms: _156  and  _157
REMARK   51  A    between atoms: _162  and  _164
REMARK   52  A    between atoms: _164  and  _165
REMARK   53  A    between atoms: _164  and  _167
REMARK   54  A    between atoms: _167  and  _168
REMARK   55  A    between atoms: _168  and  _169
REMARK   56  A    between atoms: _172  and  _174
REMARK   57  A    between atoms: _174  and  _175
REMARK   58  A    between atoms: _174  and  _177
REMARK   59  A    between atoms: _177  and  _178
REMARK   60  A    between atoms: _181  and  _183
REMARK   61  A    between atoms: _183  and  _184
REMARK   62  A    between atoms: _183  and  _186
REMARK   63  A    between atoms: _186  and  _187
REMARK   64  A    between atoms: _188  and  ZN_413
REMARK   65  A    between atoms: _192  and  _194
REMARK   66  A    between atoms: _194  and  _195
REMARK   67  A    between atoms: _194  and  _197
REMARK   68  A    between atoms: _197  and  _198
REMARK   69  A    between atoms: _201  and  _203
REMARK   70  A    between atoms: _203  and  _204
REMARK   71  A    between atoms: _203  and  _206
REMARK   72  A    between atoms: _209  and  _211
REMARK   73  A    between atoms: _211  and  _212
REMARK   74  A    between atoms: _211  and  _214
REMARK   75  A    between atoms: _214  and  _215
REMARK   76  A    between atoms: _220  and  _222
REMARK   77  A    between atoms: _222  and  _223
REMARK   78  A    between atoms: _222  and  _225
REMARK   79  A    between atoms: _225  and  _226
REMARK   80  A    between atoms: _232  and  _234
REMARK   81  A    between atoms: _234  and  _235
REMARK   82  A    between atoms: _237  and  _239
REMARK   83  A    between atoms: _239  and  _240
REMARK   84  A    between atoms: _239  and  _242
REMARK   85  A    between atoms: _245  and  _247
REMARK   86  A    between atoms: _247  and  _248
REMARK   87  A    between atoms: _247  and  _250
REMARK   88  A    between atoms: _250  and  _251
REMARK   89  A    between atoms: _254  and  _256
REMARK   90  A    between atoms: _256  and  _257
REMARK   91  A    between atoms: _260  and  _262
REMARK   92  A    between atoms: _262  and  _263
REMARK   93  A    between atoms: _262  and  _265
REMARK   94  A    between atoms: _268  and  _270
REMARK   95  A    between atoms: _270  and  _271
REMARK   96  A    between atoms: _270  and  _273
REMARK   97  A    between atoms: _273  and  _274
REMARK   98  A    between atoms: _277  and  _279
REMARK   99  A    between atoms: _279  and  _280
REMARK  100  A    between atoms: _282  and  _284
REMARK  101  A    between atoms: _284  and  _285
REMARK  102  A    between atoms: _287  and  _289
REMARK  103  A    between atoms: _289  and  _290
REMARK  104  A    between atoms: _289  and  _292
REMARK  105  A    between atoms: _292  and  _293
REMARK  106  A    between atoms: _295  and  _297
REMARK  107  A    between atoms: _297  and  _298
REMARK  108  A    between atoms: _297  and  _300
REMARK  109  A    between atoms: _300  and  _301
REMARK  110  A    between atoms: _304  and  _306
REMARK  111  A    between atoms: _306  and  _307
REMARK  112  A    between atoms: _306  and  _309
REMARK  113  A    between atoms: _309  and  _310
REMARK  114  A    between atoms: _313  and  _315
REMARK  115  A    between atoms: _315  and  _316
REMARK  116  A    between atoms: _315  and  _318
REMARK  117  A    between atoms: _318  and  _319
REMARK  118  A    between atoms: _323  and  _324
REMARK  119  A    between atoms: _330  and  _331
REMARK  120  A    between atoms: _336  and  _338
REMARK  121  A    between atoms: _338  and  _339
REMARK  122  A    between atoms: _338  and  _341
REMARK  123  A    between atoms: _341  and  _342
REMARK  124  A    between atoms: _345  and  _347
REMARK  125  A    between atoms: _347  and  _348
REMARK  126  A    between atoms: _347  and  _350
REMARK  127  A    between atoms: _350  and  _351
REMARK  128  A    between atoms: _354  and  _356
REMARK  129  A    between atoms: _356  and  _357
REMARK  130  A    between atoms: _356  and  _359
REMARK  131  A    between atoms: _361  and  _363
REMARK  132  A    between atoms: _363  and  _364
REMARK  133  A    between atoms: _363  and  _366
REMARK  134  A    between atoms: _369  and  _371
REMARK  135  A    between atoms: _371  and  _372
REMARK  136  A    between atoms: _371  and  _374
REMARK  137  A    between atoms: _374  and  _375
REMARK  138  A    between atoms: _385  and  _387
REMARK  139  A    between atoms: _387  and  _388
REMARK  140  A    between atoms: _387  and  _390
REMARK  141  A    between atoms: _390  and  _391
REMARK  142  A    between atoms: _396  and  _398
REMARK  143  A    between atoms: _398  and  _399
REMARK  144  A    between atoms: _398  and  _401
REMARK  145  A    between atoms: _401  and  _402
REMARK  146  A    between atoms: _402  and  _403
REMARK  147  A    between atoms: _403  and  _404
REMARK                            x       y       z     vdW  Elec       q    Type
REMARK                         _______ _______ _______ _____ _____    ______ ____
ROOT
ATOM      1  NE  ARG A   1       2.204  -3.699  21.025  0.00  0.00    -0.265 N 
ATOM      2  CZ  ARG A   1       2.397  -2.691  21.876  0.00  0.00    +0.342 C 
ATOM      3  NH2 ARG A   1       3.623  -2.461  22.335  0.00  0.00    -0.292 N 
ATOM      4 HH21 ARG A   1       3.791  -1.679  22.999  0.00  0.00    +0.255 HD
ATOM      5 HH22 ARG A   1       4.414  -3.063  22.030  0.00  0.00    +0.255 HD
ATOM      6  NH1 ARG A   1       1.390  -1.932  22.280  0.00  0.00    -0.292 N 
ATOM      7 HH11 ARG A   1       1.562  -1.150  22.944  0.00  0.00    +0.255 HD
ATOM      8 HH12 ARG A   1       0.427  -2.117  21.933  0.00  0.00    +0.255 HD
ATOM      9  HE  ARG A   1       3.029  -4.289  20.793  0.00  0.00    +0.259 HD
ENDROOT
BRANCH   1  10
ATOM     10  CD  ARG A   1       0.936  -4.047  20.391  0.00  0.00    +0.174 C 
BRANCH  10  11
ATOM     11  CG  ARG A   1       1.009  -5.403  19.730  0.00  0.00    +0.045 C 
BRANCH  11  12
ATOM     12  CB  ARG A   1      -0.081  -5.619  18.713  0.00  0.00    +0.029 C 
BRANCH  12  13
ATOM     13  CA  ARG A   1      -0.173  -7.059  18.201  0.00  0.00    +0.133 C 
BRANCH  13  14
ATOM     14  N   ARG A   1      -1.116  -7.139  17.096  0.00  0.00    -0.239 NA
ATOM     15  H   ARG A   1      -1.909  -6.467  17.067  0.00  0.00    +0.142 HD
ENDBRANCH  13  14
BRANCH  13  16
ATOM     16  C   ARG A   1      -0.674  -7.960  19.316  0.00  0.00    +0.224 C 
ATOM     17  O   ARG A   1      -1.860  -7.951  19.623  0.00  0.00    -0.287 OA
ENDBRANCH  13  16
ENDBRANCH  12  13
ENDBRANCH  11  12
ENDBRANCH  10  11
ENDBRANCH   1  10
TORSDOF 6
REMARK  Name = ../refined-set-2016/4rux/4rux_pocket.pdb
REMARK  147 active torsions:
REMARK  status: ('A' for Active; 'I' for Inactive)
REMARK    1  A    between atoms: _1  and  _3
REMARK    2  A    between atoms: _3  and  _4
REMARK    3  A    between atoms: _3  and  _6
REMARK    4  A    between atoms: _6  and  _7
REMARK    5  A    between atoms: _17  and  _19
REMARK    6  A    between atoms: _19  and  _20
REMARK    7  A    between atoms: _19  and  _22
REMARK    8  A    between atoms: _22  and  _23
REMARK    9  A    between atoms: _28  and  _29
REMARK   10  A    between atoms: _31  and  _33
REMARK   11  A    between atoms: _33  and  _34
REMARK   12  A    between atoms: _33  and  _36
REMARK   13  A    between atoms: _36  and  _37
REMARK   14  A    between atoms: _40  and  _41
REMARK   15  A    between atoms: _46  and  _48
REMARK   16  A    between atoms: _48  and  _49
REMARK   17  A    between atoms: _48  and  _51
REMARK   18  A    between atoms: _51  and  _52
REMARK   19  A    between atoms: _57  and  _59
REMARK   20  A    between atoms: _59  and  _60
REMARK   21  A    between atoms: _63  and  _65
REMARK   22  A    between atoms: _65  and  _66
REMARK   23  A    between atoms: _65  and  _68
REMARK   24  A    between atoms: _68  and  _69
REMARK   25  A    between atoms: _74  and  _76
REMARK   26  A    between atoms: _76  and  _77
REMARK   27  A    between atoms: _76  and  _79
REMARK   28  A    between atoms: _79  and  _80
REMARK   29  A    between atoms: _83  and  _85
REMARK   30  A    between atoms: _85  and  _86
REMARK   31  A    between atoms: _85  and  _88
REMARK   32  A    between atoms: _88  and  _89
REMARK   33  A    between atoms: _89  and  _90
REMARK   34  A    between atoms: _95  and  _97
REMARK   35  A    between atoms: _97  and  _98
REMARK   36  A    between atoms: _97  and  _100
REMARK   37  A    between atoms: _100  and  _101
REMARK   38  A    between atoms: _107  and  _109
REMARK   39  A    between atoms: _120  and  _123
REMARK   40  A    between atoms: _123  and  _124
REMARK   41  A    between atoms: _132  and  _133
REMARK   42  A    between atoms: _141  and  _143
REMARK   43  A    between atoms: _143  and  _144
REMARK   44  A    between atoms: _143  and  _146
REMARK   45  A    between atoms: _146  and  _147
REMARK   46  A    between atoms: _147  and  _148
REMARK   47  A    between atoms: _151  and  _153
REMARK   48  A    between atoms: _153  and  _154
REMARK   49  A    between atoms: _153  and  _156
REMARK   50  A    between atoms: _156  and  _157
REMARK   51  A    between atoms: _162  and  _164
REMARK   52  A    between atoms: _164  and  _165
REMARK   53  A    between atoms: _164  and  _167
REMARK   54  A    between atoms: _167  and  _168
REMARK   55  A    between atoms: _168  and  _169
REMARK   56  A    between atoms: _172  and  _174
REMARK   57  A    between atoms: _174  and  _175
REMARK   58  A    between atoms: _174  and  _177
REMARK   59  A    between atoms: _177  and  _178
REMARK   60  A    between atoms: _181  and  _183
REMARK   61  A    between atoms: _183  and  _184
REMARK   62  A    between atoms: _183  and  _186
REMARK   63  A    between atoms: _186  and  _187
REMARK   64  A    between atoms: _188  and  ZN_413
REMARK   65  A    between atoms: _192  and  _194
REMARK   66  A    between atoms: _194  and  _195
REMARK   67  A    between atoms: _194  and  _197
REMARK   68  A    between atoms: _197  and  _198
REMARK   69  A    between atoms: _201  and  _203
REMARK   70  A    between atoms: _203  and  _204
REMARK   71  A    between atoms: _203  and  _206
REMARK   72  A    between atoms: _209  and  _211
REMARK   73  A    between atoms: _211  and  _212
REMARK   74  A    between atoms: _211  and  _214
REMARK   75  A    between atoms: _214  and  _215
REMARK   76  A    between atoms: _220  and  _222
REMARK   77  A    between atoms: _222  and  _223
REMARK   78  A    between atoms: _222  and  _225
REMARK   79  A    between atoms: _225  and  _226
REMARK   80  A    between atoms: _232  and  _234
REMARK   81  A    between atoms: _234  and  _235
REMARK   82  A    between atoms: _237  and  _239
REMARK   83  A    between atoms: _239  and  _240
REMARK   84  A    between atoms: _239  and  _242
REMARK   85  A    between atoms: _245  and  _247
REMARK   86  A    between atoms: _247  and  _248
REMARK   87  A    between atoms: _247  and  _250
REMARK   88  A    between atoms: _250  and  _251
REMARK   89  A    between atoms: _254  and  _256
REMARK   90  A    between atoms: _256  and  _257
REMARK   91  A    between atoms: _260  and  _262
REMARK   92  A    between atoms: _262  and  _263
REMARK   93  A    between atoms: _262  and  _265
REMARK   94  A    between atoms: _268  and  _270
REMARK   95  A    between atoms: _270  and  _271
REMARK   96  A    between atoms: _270  and  _273
REMARK   97  A    between atoms: _273  and  _274
REMARK   98  A    between atoms: _277  and  _279
REMARK   99  A    between atoms: _279  and  _280
REMARK  100  A    between atoms: _282  and  _284
REMARK  101  A    between atoms: _284  and  _285
REMARK  102  A    between atoms: _287  and  _289
REMARK  103  A    between atoms: _289  and  _290
REMARK  104  A    between atoms: _289  and  _292
REMARK  105  A    between atoms: _292  and  _293
REMARK  106  A    between atoms: _295  and  _297
REMARK  107  A    between atoms: _297  and  _298
REMARK  108  A    between atoms: _297  and  _300
REMARK  109  A    between atoms: _300  and  _301
REMARK  110  A    between atoms: _304  and  _306
REMARK  111  A    between atoms: _306  and  _307
REMARK  112  A    between atoms: _306  and  _309
REMARK  113  A    between atoms: _309  and  _310
REMARK  114  A    between atoms: _313  and  _315
REMARK  115  A    between atoms: _315  and  _316
REMARK  116  A    between atoms: _315  and  _318
REMARK  117  A    between atoms: _318  and  _319
REMARK  118  A    between atoms: _323  and  _324
REMARK  119  A    between atoms: _330  and  _331
REMARK  120  A    between atoms: _336  and  _338
REMARK  121  A    between atoms: _338  and  _339
REMARK  122  A    between atoms: _338  and  _341
REMARK  123  A    between atoms: _341  and  _342
REMARK  124  A    between atoms: _345  and  _347
REMARK  125  A    between atoms: _347  and  _348
REMARK  126  A    between atoms: _347  and  _350
REMARK  127  A    between atoms: _350  and  _351
REMARK  128  A    between atoms: _354  and  _356
REMARK  129  A    between atoms: _356  and  _357
REMARK  130  A    between atoms: _356  and  _359
REMARK  131  A    between atoms: _361  and  _363
REMARK  132  A    between atoms: _363  and  _364
REMARK  133  A    between atoms: _363  and  _366
REMARK  134  A    between atoms: _369  and  _371
REMARK  135  A    between atoms: _371  and  _372
REMARK  136  A    between atoms: _371  and  _374
REMARK  137  A    between atoms: _374  and  _375
REMARK  138  A    between atoms: _385  and  _387
REMARK  139  A    between atoms: _387  and  _388
REMARK  140  A    between atoms: _387  and  _390
REMARK  141  A    between atoms: _390  and  _391
REMARK  142  A    between atoms: _396  and  _398
REMARK  143  A    between atoms: _398  and  _399
REMARK  144  A    between atoms: _398  and  _401
REMARK  145  A    between atoms: _401  and  _402
REMARK  146  A    between atoms: _402  and  _403
REMARK  147  A    between atoms: _403  and  _404
REMARK                            x       y       z     vdW  Elec       q    Type
REMARK                         _______ _______ _______ _____ _____    ______ ____
ROOT
ATOM      1  O   HOH     1      -1.240  -3.974  15.713  0.00  0.00    +0.000 OA
ENDROOT
TORSDOF 0
REMARK  Name = ../refined-set-2016/4rux/4rux_pocket.pdb
REMARK  147 active torsions:
REMARK  status: ('A' for Active; 'I' for Inactive)
REMARK    1  A    between atoms: _1  and  _3
REMARK    2  A    between atoms: _3  and  _4
REMARK    3  A    between atoms: _3  and  _6
REMARK    4  A    between atoms: _6  and  _7
REMARK    5  A    between atoms: _17  and  _19
REMARK    6  A    between atoms: _19  and  _20
REMARK    7  A    between atoms: _19  and  _22
REMARK    8  A    between atoms: _22  and  _23
REMARK    9  A    between atoms: _28  and  _29
REMARK   10  A    between atoms: _31  and  _33
REMARK   11  A    between atoms: _33  and  _34
REMARK   12  A    between atoms: _33  and  _36
REMARK   13  A    between atoms: _36  and  _37
REMARK   14  A    between atoms: _40  and  _41
REMARK   15  A    between atoms: _46  and  _48
REMARK   16  A    between atoms: _48  and  _49
REMARK   17  A    between atoms: _48  and  _51
REMARK   18  A    between atoms: _51  and  _52
REMARK   19  A    between atoms: _57  and  _59
REMARK   20  A    between atoms: _59  and  _60
REMARK   21  A    between atoms: _63  and  _65
REMARK   22  A    between atoms: _65  and  _66
REMARK   23  A    between atoms: _65  and  _68
REMARK   24  A    between atoms: _68  and  _69
REMARK   25  A    between atoms: _74  and  _76
REMARK   26  A    between atoms: _76  and  _77
REMARK   27  A    between atoms: _76  and  _79
REMARK   28  A    between atoms: _79  and  _80
REMARK   29  A    between atoms: _83  and  _85
REMARK   30  A    between atoms: _85  and  _86
REMARK   31  A    between atoms: _85  and  _88
REMARK   32  A    between atoms: _88  and  _89
REMARK   33  A    between atoms: _89  and  _90
REMARK   34  A    between atoms: _95  and  _97
REMARK   35  A    between atoms: _97  and  _98
REMARK   36  A    between atoms: _97  and  _100
REMARK   37  A    between atoms: _100  and  _101
REMARK   38  A    between atoms: _107  and  _109
REMARK   39  A    between atoms: _120  and  _123
REMARK   40  A    between atoms: _123  and  _124
REMARK   41  A    between atoms: _132  and  _133
REMARK   42  A    between atoms: _141  and  _143
REMARK   43  A    between atoms: _143  and  _144
REMARK   44  A    between atoms: _143  and  _146
REMARK   45  A    between atoms: _146  and  _147
REMARK   46  A    between atoms: _147  and  _148
REMARK   47  A    between atoms: _151  and  _153
REMARK   48  A    between atoms: _153  and  _154
REMARK   49  A    between atoms: _153  and  _156
REMARK   50  A    between atoms: _156  and  _157
REMARK   51  A    between atoms: _162  and  _164
REMARK   52  A    between atoms: _164  and  _165
REMARK   53  A    between atoms: _164  and  _167
REMARK   54  A    between atoms: _167  and  _168
REMARK   55  A    between atoms: _168  and  _169
REMARK   56  A    between atoms: _172  and  _174
REMARK   57  A    between atoms: _174  and  _175
REMARK   58  A    between atoms: _174  and  _177
REMARK   59  A    between atoms: _177  and  _178
REMARK   60  A    between atoms: _181  and  _183
REMARK   61  A    between atoms: _183  and  _184
REMARK   62  A    between atoms: _183  and  _186
REMARK   63  A    between atoms: _186  and  _187
REMARK   64  A    between atoms: _188  and  ZN_413
REMARK   65  A    between atoms: _192  and  _194
REMARK   66  A    between atoms: _194  and  _195
REMARK   67  A    between atoms: _194  and  _197
REMARK   68  A    between atoms: _197  and  _198
REMARK   69  A    between atoms: _201  and  _203
REMARK   70  A    between atoms: _203  and  _204
REMARK   71  A    between atoms: _203  and  _206
REMARK   72  A    between atoms: _209  and  _211
REMARK   73  A    between atoms: _211  and  _212
REMARK   74  A    between atoms: _211  and  _214
REMARK   75  A    between atoms: _214  and  _215
REMARK   76  A    between atoms: _220  and  _222
REMARK   77  A    between atoms: _222  and  _223
REMARK   78  A    between atoms: _222  and  _225
REMARK   79  A    between atoms: _225  and  _226
REMARK   80  A    between atoms: _232  and  _234
REMARK   81  A    between atoms: _234  and  _235
REMARK   82  A    between atoms: _237  and  _239
REMARK   83  A    between atoms: _239  and  _240
REMARK   84  A    between atoms: _239  and  _242
REMARK   85  A    between atoms: _245  and  _247
REMARK   86  A    between atoms: _247  and  _248
REMARK   87  A    between atoms: _247  and  _250
REMARK   88  A    between atoms: _250  and  _251
REMARK   89  A    between atoms: _254  and  _256
REMARK   90  A    between atoms: _256  and  _257
REMARK   91  A    between atoms: _260  and  _262
REMARK   92  A    between atoms: _262  and  _263
REMARK   93  A    between atoms: _262  and  _265
REMARK   94  A    between atoms: _268  and  _270
REMARK   95  A    between atoms: _270  and  _271
REMARK   96  A    between atoms: _270  and  _273
REMARK   97  A    between atoms: _273  and  _274
REMARK   98  A    between atoms: _277  and  _279
REMARK   99  A    between atoms: _279  and  _280
REMARK  100  A    between atoms: _282  and  _284
REMARK  101  A    between atoms: _284  and  _285
REMARK  102  A    between atoms: _287  and  _289
REMARK  103  A    between atoms: _289  and  _290
REMARK  104  A    between atoms: _289  and  _292
REMARK  105  A    between atoms: _292  and  _293
REMARK  106  A    between atoms: _295  and  _297
REMARK  107  A    between atoms: _297  and  _298
REMARK  108  A    between atoms: _297  and  _300
REMARK  109  A    between atoms: _300  and  _301
REMARK  110  A    between atoms: _304  and  _306
REMARK  111  A    between atoms: _306  and  _307
REMARK  112  A    between atoms: _306  and  _309
REMARK  113  A    between atoms: _309  and  _310
REMARK  114  A    between atoms: _313  and  _315
REMARK  115  A    between atoms: _315  and  _316
REMARK  116  A    between atoms: _315  and  _318
REMARK  117  A    between atoms: _318  and  _319
REMARK  118  A    between atoms: _323  and  _324
REMARK  119  A    between atoms: _330  and  _331
REMARK  120  A    between atoms: _336  and  _338
REMARK  121  A    between atoms: _338  and  _339
REMARK  122  A    between atoms: _338  and  _341
REMARK  123  A    between atoms: _341  and  _342
REMARK  124  A    between atoms: _345  and  _347
REMARK  125  A    between atoms: _347  and  _348
REMARK  126  A    between atoms: _347  and  _350
REMARK  127  A    between atoms: _350  and  _351
REMARK  128  A    between atoms: _354  and  _356
REMARK  129  A    between atoms: _356  and  _357
REMARK  130  A    between atoms: _356  and  _359
REMARK  131  A    between atoms: _361  and  _363
REMARK  132  A    between atoms: _363  and  _364
REMARK  133  A    between atoms: _363  and  _366
REMARK  134  A    between atoms: _369  and  _371
REMARK  135  A    between atoms: _371  and  _372
REMARK  136  A    between atoms: _371  and  _374
REMARK  137  A    between atoms: _374  and  _375
REMARK  138  A    between atoms: _385  and  _387
REMARK  139  A    between atoms: _387  and  _388
REMARK  140  A    between atoms: _387  and  _390
REMARK  141  A    between atoms: _390  and  _391
REMARK  142  A    between atoms: _396  and  _398
REMARK  143  A    between atoms: _398  and  _399
REMARK  144  A    between atoms: _398  and  _401
REMARK  145  A    between atoms: _401  and  _402
REMARK  146  A    between atoms: _402  and  _403
REMARK  147  A    between atoms: _403  and  _404
REMARK                            x       y       z     vdW  Elec       q    Type
REMARK                         _______ _______ _______ _____ _____    ______ ____
ROOT
ATOM      1  O   HOH     1      -2.525  -3.118  11.402  0.00  0.00    +0.000 OA
ENDROOT
TORSDOF 0
REMARK  Name = ../refined-set-2016/4rux/4rux_pocket.pdb
REMARK  147 active torsions:
REMARK  status: ('A' for Active; 'I' for Inactive)
REMARK    1  A    between atoms: _1  and  _3
REMARK    2  A    between atoms: _3  and  _4
REMARK    3  A    between atoms: _3  and  _6
REMARK    4  A    between atoms: _6  and  _7
REMARK    5  A    between atoms: _17  and  _19
REMARK    6  A    between atoms: _19  and  _20
REMARK    7  A    between atoms: _19  and  _22
REMARK    8  A    between atoms: _22  and  _23
REMARK    9  A    between atoms: _28  and  _29
REMARK   10  A    between atoms: _31  and  _33
REMARK   11  A    between atoms: _33  and  _34
REMARK   12  A    between atoms: _33  and  _36
REMARK   13  A    between atoms: _36  and  _37
REMARK   14  A    between atoms: _40  and  _41
REMARK   15  A    between atoms: _46  and  _48
REMARK   16  A    between atoms: _48  and  _49
REMARK   17  A    between atoms: _48  and  _51
REMARK   18  A    between atoms: _51  and  _52
REMARK   19  A    between atoms: _57  and  _59
REMARK   20  A    between atoms: _59  and  _60
REMARK   21  A    between atoms: _63  and  _65
REMARK   22  A    between atoms: _65  and  _66
REMARK   23  A    between atoms: _65  and  _68
REMARK   24  A    between atoms: _68  and  _69
REMARK   25  A    between atoms: _74  and  _76
REMARK   26  A    between atoms: _76  and  _77
REMARK   27  A    between atoms: _76  and  _79
REMARK   28  A    between atoms: _79  and  _80
REMARK   29  A    between atoms: _83  and  _85
REMARK   30  A    between atoms: _85  and  _86
REMARK   31  A    between atoms: _85  and  _88
REMARK   32  A    between atoms: _88  and  _89
REMARK   33  A    between atoms: _89  and  _90
REMARK   34  A    between atoms: _95  and  _97
REMARK   35  A    between atoms: _97  and  _98
REMARK   36  A    between atoms: _97  and  _100
REMARK   37  A    between atoms: _100  and  _101
REMARK   38  A    between atoms: _107  and  _109
REMARK   39  A    between atoms: _120  and  _123
REMARK   40  A    between atoms: _123  and  _124
REMARK   41  A    between atoms: _132  and  _133
REMARK   42  A    between atoms: _141  and  _143
REMARK   43  A    between atoms: _143  and  _144
REMARK   44  A    between atoms: _143  and  _146
REMARK   45  A    between atoms: _146  and  _147
REMARK   46  A    between atoms: _147  and  _148
REMARK   47  A    between atoms: _151  and  _153
REMARK   48  A    between atoms: _153  and  _154
REMARK   49  A    between atoms: _153  and  _156
REMARK   50  A    between atoms: _156  and  _157
REMARK   51  A    between atoms: _162  and  _164
REMARK   52  A    between atoms: _164  and  _165
REMARK   53  A    between atoms: _164  and  _167
REMARK   54  A    between atoms: _167  and  _168
REMARK   55  A    between atoms: _168  and  _169
REMARK   56  A    between atoms: _172  and  _174
REMARK   57  A    between atoms: _174  and  _175
REMARK   58  A    between atoms: _174  and  _177
REMARK   59  A    between atoms: _177  and  _178
REMARK   60  A    between atoms: _181  and  _183
REMARK   61  A    between atoms: _183  and  _184
REMARK   62  A    between atoms: _183  and  _186
REMARK   63  A    between atoms: _186  and  _187
REMARK   64  A    between atoms: _188  and  ZN_413
REMARK   65  A    between atoms: _192  and  _194
REMARK   66  A    between atoms: _194  and  _195
REMARK   67  A    between atoms: _194  and  _197
REMARK   68  A    between atoms: _197  and  _198
REMARK   69  A    between atoms: _201  and  _203
REMARK   70  A    between atoms: _203  and  _204
REMARK   71  A    between atoms: _203  and  _206
REMARK   72  A    between atoms: _209  and  _211
REMARK   73  A    between atoms: _211  and  _212
REMARK   74  A    between atoms: _211  and  _214
REMARK   75  A    between atoms: _214  and  _215
REMARK   76  A    between atoms: _220  and  _222
REMARK   77  A    between atoms: _222  and  _223
REMARK   78  A    between atoms: _222  and  _225
REMARK   79  A    between atoms: _225  and  _226
REMARK   80  A    between atoms: _232  and  _234
REMARK   81  A    between atoms: _234  and  _235
REMARK   82  A    between atoms: _237  and  _239
REMARK   83  A    between atoms: _239  and  _240
REMARK   84  A    between atoms: _239  and  _242
REMARK   85  A    between atoms: _245  and  _247
REMARK   86  A    between atoms: _247  and  _248
REMARK   87  A    between atoms: _247  and  _250
REMARK   88  A    between atoms: _250  and  _251
REMARK   89  A    between atoms: _254  and  _256
REMARK   90  A    between atoms: _256  and  _257
REMARK   91  A    between atoms: _260  and  _262
REMARK   92  A    between atoms: _262  and  _263
REMARK   93  A    between atoms: _262  and  _265
REMARK   94  A    between atoms: _268  and  _270
REMARK   95  A    between atoms: _270  and  _271
REMARK   96  A    between atoms: _270  and  _273
REMARK   97  A    between atoms: _273  and  _274
REMARK   98  A    between atoms: _277  and  _279
REMARK   99  A    between atoms: _279  and  _280
REMARK  100  A    between atoms: _282  and  _284
REMARK  101  A    between atoms: _284  and  _285
REMARK  102  A    between atoms: _287  and  _289
REMARK  103  A    between atoms: _289  and  _290
REMARK  104  A    between atoms: _289  and  _292
REMARK  105  A    between atoms: _292  and  _293
REMARK  106  A    between atoms: _295  and  _297
REMARK  107  A    between atoms: _297  and  _298
REMARK  108  A    between atoms: _297  and  _300
REMARK  109  A    between atoms: _300  and  _301
REMARK  110  A    between atoms: _304  and  _306
REMARK  111  A    between atoms: _306  and  _307
REMARK  112  A    between atoms: _306  and  _309
REMARK  113  A    between atoms: _309  and  _310
REMARK  114  A    between atoms: _313  and  _315
REMARK  115  A    between atoms: _315  and  _316
REMARK  116  A    between atoms: _315  and  _318
REMARK  117  A    between atoms: _318  and  _319
REMARK  118  A    between atoms: _323  and  _324
REMARK  119  A    between atoms: _330  and  _331
REMARK  120  A    between atoms: _336  and  _338
REMARK  121  A    between atoms: _338  and  _339
REMARK  122  A    between atoms: _338  and  _341
REMARK  123  A    between atoms: _341  and  _342
REMARK  124  A    between atoms: _345  and  _347
REMARK  125  A    between atoms: _347  and  _348
REMARK  126  A    between atoms: _347  and  _350
REMARK  127  A    between atoms: _350  and  _351
REMARK  128  A    between atoms: _354  and  _356
REMARK  129  A    between atoms: _356  and  _357
REMARK  130  A    between atoms: _356  and  _359
REMARK  131  A    between atoms: _361  and  _363
REMARK  132  A    between atoms: _363  and  _364
REMARK  133  A    between atoms: _363  and  _366
REMARK  134  A    between atoms: _369  and  _371
REMARK  135  A    between atoms: _371  and  _372
REMARK  136  A    between atoms: _371  and  _374
REMARK  137  A    between atoms: _374  and  _375
REMARK  138  A    between atoms: _385  and  _387
REMARK  139  A    between atoms: _387  and  _388
REMARK  140  A    between atoms: _387  and  _390
REMARK  141  A    between atoms: _390  and  _391
REMARK  142  A    between atoms: _396  and  _398
REMARK  143  A    between atoms: _398  and  _399
REMARK  144  A    between atoms: _398  and  _401
REMARK  145  A    between atoms: _401  and  _402
REMARK  146  A    between atoms: _402  and  _403
REMARK  147  A    between atoms: _403  and  _404
REMARK                            x       y       z     vdW  Elec       q    Type
REMARK                         _______ _______ _______ _____ _____    ______ ____
ROOT
ATOM      1  O   HOH     1      -1.099   1.554  11.539  0.00  0.00    +0.000 OA
ENDROOT
TORSDOF 0
REMARK  Name = ../refined-set-2016/4rux/4rux_pocket.pdb
REMARK  147 active torsions:
REMARK  status: ('A' for Active; 'I' for Inactive)
REMARK    1  A    between atoms: _1  and  _3
REMARK    2  A    between atoms: _3  and  _4
REMARK    3  A    between atoms: _3  and  _6
REMARK    4  A    between atoms: _6  and  _7
REMARK    5  A    between atoms: _17  and  _19
REMARK    6  A    between atoms: _19  and  _20
REMARK    7  A    between atoms: _19  and  _22
REMARK    8  A    between atoms: _22  and  _23
REMARK    9  A    between atoms: _28  and  _29
REMARK   10  A    between atoms: _31  and  _33
REMARK   11  A    between atoms: _33  and  _34
REMARK   12  A    between atoms: _33  and  _36
REMARK   13  A    between atoms: _36  and  _37
REMARK   14  A    between atoms: _40  and  _41
REMARK   15  A    between atoms: _46  and  _48
REMARK   16  A    between atoms: _48  and  _49
REMARK   17  A    between atoms: _48  and  _51
REMARK   18  A    between atoms: _51  and  _52
REMARK   19  A    between atoms: _57  and  _59
REMARK   20  A    between atoms: _59  and  _60
REMARK   21  A    between atoms: _63  and  _65
REMARK   22  A    between atoms: _65  and  _66
REMARK   23  A    between atoms: _65  and  _68
REMARK   24  A    between atoms: _68  and  _69
REMARK   25  A    between atoms: _74  and  _76
REMARK   26  A    between atoms: _76  and  _77
REMARK   27  A    between atoms: _76  and  _79
REMARK   28  A    between atoms: _79  and  _80
REMARK   29  A    between atoms: _83  and  _85
REMARK   30  A    between atoms: _85  and  _86
REMARK   31  A    between atoms: _85  and  _88
REMARK   32  A    between atoms: _88  and  _89
REMARK   33  A    between atoms: _89  and  _90
REMARK   34  A    between atoms: _95  and  _97
REMARK   35  A    between atoms: _97  and  _98
REMARK   36  A    between atoms: _97  and  _100
REMARK   37  A    between atoms: _100  and  _101
REMARK   38  A    between atoms: _107  and  _109
REMARK   39  A    between atoms: _120  and  _123
REMARK   40  A    between atoms: _123  and  _124
REMARK   41  A    between atoms: _132  and  _133
REMARK   42  A    between atoms: _141  and  _143
REMARK   43  A    between atoms: _143  and  _144
REMARK   44  A    between atoms: _143  and  _146
REMARK   45  A    between atoms: _146  and  _147
REMARK   46  A    between atoms: _147  and  _148
REMARK   47  A    between atoms: _151  and  _153
REMARK   48  A    between atoms: _153  and  _154
REMARK   49  A    between atoms: _153  and  _156
REMARK   50  A    between atoms: _156  and  _157
REMARK   51  A    between atoms: _162  and  _164
REMARK   52  A    between atoms: _164  and  _165
REMARK   53  A    between atoms: _164  and  _167
REMARK   54  A    between atoms: _167  and  _168
REMARK   55  A    between atoms: _168  and  _169
REMARK   56  A    between atoms: _172  and  _174
REMARK   57  A    between atoms: _174  and  _175
REMARK   58  A    between atoms: _174  and  _177
REMARK   59  A    between atoms: _177  and  _178
REMARK   60  A    between atoms: _181  and  _183
REMARK   61  A    between atoms: _183  and  _184
REMARK   62  A    between atoms: _183  and  _186
REMARK   63  A    between atoms: _186  and  _187
REMARK   64  A    between atoms: _188  and  ZN_413
REMARK   65  A    between atoms: _192  and  _194
REMARK   66  A    between atoms: _194  and  _195
REMARK   67  A    between atoms: _194  and  _197
REMARK   68  A    between atoms: _197  and  _198
REMARK   69  A    between atoms: _201  and  _203
REMARK   70  A    between atoms: _203  and  _204
REMARK   71  A    between atoms: _203  and  _206
REMARK   72  A    between atoms: _209  and  _211
REMARK   73  A    between atoms: _211  and  _212
REMARK   74  A    between atoms: _211  and  _214
REMARK   75  A    between atoms: _214  and  _215
REMARK   76  A    between atoms: _220  and  _222
REMARK   77  A    between atoms: _222  and  _223
REMARK   78  A    between atoms: _222  and  _225
REMARK   79  A    between atoms: _225  and  _226
REMARK   80  A    between atoms: _232  and  _234
REMARK   81  A    between atoms: _234  and  _235
REMARK   82  A    between atoms: _237  and  _239
REMARK   83  A    between atoms: _239  and  _240
REMARK   84  A    between atoms: _239  and  _242
REMARK   85  A    between atoms: _245  and  _247
REMARK   86  A    between atoms: _247  and  _248
REMARK   87  A    between atoms: _247  and  _250
REMARK   88  A    between atoms: _250  and  _251
REMARK   89  A    between atoms: _254  and  _256
REMARK   90  A    between atoms: _256  and  _257
REMARK   91  A    between atoms: _260  and  _262
REMARK   92  A    between atoms: _262  and  _263
REMARK   93  A    between atoms: _262  and  _265
REMARK   94  A    between atoms: _268  and  _270
REMARK   95  A    between atoms: _270  and  _271
REMARK   96  A    between atoms: _270  and  _273
REMARK   97  A    between atoms: _273  and  _274
REMARK   98  A    between atoms: _277  and  _279
REMARK   99  A    between atoms: _279  and  _280
REMARK  100  A    between atoms: _282  and  _284
REMARK  101  A    between atoms: _284  and  _285
REMARK  102  A    between atoms: _287  and  _289
REMARK  103  A    between atoms: _289  and  _290
REMARK  104  A    between atoms: _289  and  _292
REMARK  105  A    between atoms: _292  and  _293
REMARK  106  A    between atoms: _295  and  _297
REMARK  107  A    between atoms: _297  and  _298
REMARK  108  A    between atoms: _297  and  _300
REMARK  109  A    between atoms: _300  and  _301
REMARK  110  A    between atoms: _304  and  _306
REMARK  111  A    between atoms: _306  and  _307
REMARK  112  A    between atoms: _306  and  _309
REMARK  113  A    between atoms: _309  and  _310
REMARK  114  A    between atoms: _313  and  _315
REMARK  115  A    between atoms: _315  and  _316
REMARK  116  A    between atoms: _315  and  _318
REMARK  117  A    between atoms: _318  and  _319
REMARK  118  A    between atoms: _323  and  _324
REMARK  119  A    between atoms: _330  and  _331
REMARK  120  A    between atoms: _336  and  _338
REMARK  121  A    between atoms: _338  and  _339
REMARK  122  A    between atoms: _338  and  _341
REMARK  123  A    between atoms: _341  and  _342
REMARK  124  A    between atoms: _345  and  _347
REMARK  125  A    between atoms: _347  and  _348
REMARK  126  A    between atoms: _347  and  _350
REMARK  127  A    between atoms: _350  and  _351
REMARK  128  A    between atoms: _354  and  _356
REMARK  129  A    between atoms: _356  and  _357
REMARK  130  A    between atoms: _356  and  _359
REMARK  131  A    between atoms: _361  and  _363
REMARK  132  A    between atoms: _363  and  _364
REMARK  133  A    between atoms: _363  and  _366
REMARK  134  A    between atoms: _369  and  _371
REMARK  135  A    between atoms: _371  and  _372
REMARK  136  A    between atoms: _371  and  _374
REMARK  137  A    between atoms: _374  and  _375
REMARK  138  A    between atoms: _385  and  _387
REMARK  139  A    between atoms: _387  and  _388
REMARK  140  A    between atoms: _387  and  _390
REMARK  141  A    between atoms: _390  and  _391
REMARK  142  A    between atoms: _396  and  _398
REMARK  143  A    between atoms: _398  and  _399
REMARK  144  A    between atoms: _398  and  _401
REMARK  145  A    between atoms: _401  and  _402
REMARK  146  A    between atoms: _402  and  _403
REMARK  147  A    between atoms: _403  and  _404
REMARK                            x       y       z     vdW  Elec       q    Type
REMARK                         _______ _______ _______ _____ _____    ______ ____
ROOT
ATOM      1  O   HOH     1      -4.157   4.952   7.086  0.00  0.00    +0.000 OA
ENDROOT
TORSDOF 0
REMARK  Name = ../refined-set-2016/4rux/4rux_pocket.pdb
REMARK  147 active torsions:
REMARK  status: ('A' for Active; 'I' for Inactive)
REMARK    1  A    between atoms: _1  and  _3
REMARK    2  A    between atoms: _3  and  _4
REMARK    3  A    between atoms: _3  and  _6
REMARK    4  A    between atoms: _6  and  _7
REMARK    5  A    between atoms: _17  and  _19
REMARK    6  A    between atoms: _19  and  _20
REMARK    7  A    between atoms: _19  and  _22
REMARK    8  A    between atoms: _22  and  _23
REMARK    9  A    between atoms: _28  and  _29
REMARK   10  A    between atoms: _31  and  _33
REMARK   11  A    between atoms: _33  and  _34
REMARK   12  A    between atoms: _33  and  _36
REMARK   13  A    between atoms: _36  and  _37
REMARK   14  A    between atoms: _40  and  _41
REMARK   15  A    between atoms: _46  and  _48
REMARK   16  A    between atoms: _48  and  _49
REMARK   17  A    between atoms: _48  and  _51
REMARK   18  A    between atoms: _51  and  _52
REMARK   19  A    between atoms: _57  and  _59
REMARK   20  A    between atoms: _59  and  _60
REMARK   21  A    between atoms: _63  and  _65
REMARK   22  A    between atoms: _65  and  _66
REMARK   23  A    between atoms: _65  and  _68
REMARK   24  A    between atoms: _68  and  _69
REMARK   25  A    between atoms: _74  and  _76
REMARK   26  A    between atoms: _76  and  _77
REMARK   27  A    between atoms: _76  and  _79
REMARK   28  A    between atoms: _79  and  _80
REMARK   29  A    between atoms: _83  and  _85
REMARK   30  A    between atoms: _85  and  _86
REMARK   31  A    between atoms: _85  and  _88
REMARK   32  A    between atoms: _88  and  _89
REMARK   33  A    between atoms: _89  and  _90
REMARK   34  A    between atoms: _95  and  _97
REMARK   35  A    between atoms: _97  and  _98
REMARK   36  A    between atoms: _97  and  _100
REMARK   37  A    between atoms: _100  and  _101
REMARK   38  A    between atoms: _107  and  _109
REMARK   39  A    between atoms: _120  and  _123
REMARK   40  A    between atoms: _123  and  _124
REMARK   41  A    between atoms: _132  and  _133
REMARK   42  A    between atoms: _141  and  _143
REMARK   43  A    between atoms: _143  and  _144
REMARK   44  A    between atoms: _143  and  _146
REMARK   45  A    between atoms: _146  and  _147
REMARK   46  A    between atoms: _147  and  _148
REMARK   47  A    between atoms: _151  and  _153
REMARK   48  A    between atoms: _153  and  _154
REMARK   49  A    between atoms: _153  and  _156
REMARK   50  A    between atoms: _156  and  _157
REMARK   51  A    between atoms: _162  and  _164
REMARK   52  A    between atoms: _164  and  _165
REMARK   53  A    between atoms: _164  and  _167
REMARK   54  A    between atoms: _167  and  _168
REMARK   55  A    between atoms: _168  and  _169
REMARK   56  A    between atoms: _172  and  _174
REMARK   57  A    between atoms: _174  and  _175
REMARK   58  A    between atoms: _174  and  _177
REMARK   59  A    between atoms: _177  and  _178
REMARK   60  A    between atoms: _181  and  _183
REMARK   61  A    between atoms: _183  and  _184
REMARK   62  A    between atoms: _183  and  _186
REMARK   63  A    between atoms: _186  and  _187
REMARK   64  A    between atoms: _188  and  ZN_413
REMARK   65  A    between atoms: _192  and  _194
REMARK   66  A    between atoms: _194  and  _195
REMARK   67  A    between atoms: _194  and  _197
REMARK   68  A    between atoms: _197  and  _198
REMARK   69  A    between atoms: _201  and  _203
REMARK   70  A    between atoms: _203  and  _204
REMARK   71  A    between atoms: _203  and  _206
REMARK   72  A    between atoms: _209  and  _211
REMARK   73  A    between atoms: _211  and  _212
REMARK   74  A    between atoms: _211  and  _214
REMARK   75  A    between atoms: _214  and  _215
REMARK   76  A    between atoms: _220  and  _222
REMARK   77  A    between atoms: _222  and  _223
REMARK   78  A    between atoms: _222  and  _225
REMARK   79  A    between atoms: _225  and  _226
REMARK   80  A    between atoms: _232  and  _234
REMARK   81  A    between atoms: _234  and  _235
REMARK   82  A    between atoms: _237  and  _239
REMARK   83  A    between atoms: _239  and  _240
REMARK   84  A    between atoms: _239  and  _242
REMARK   85  A    between atoms: _245  and  _247
REMARK   86  A    between atoms: _247  and  _248
REMARK   87  A    between atoms: _247  and  _250
REMARK   88  A    between atoms: _250  and  _251
REMARK   89  A    between atoms: _254  and  _256
REMARK   90  A    between atoms: _256  and  _257
REMARK   91  A    between atoms: _260  and  _262
REMARK   92  A    between atoms: _262  and  _263
REMARK   93  A    between atoms: _262  and  _265
REMARK   94  A    between atoms: _268  and  _270
REMARK   95  A    between atoms: _270  and  _271
REMARK   96  A    between atoms: _270  and  _273
REMARK   97  A    between atoms: _273  and  _274
REMARK   98  A    between atoms: _277  and  _279
REMARK   99  A    between atoms: _279  and  _280
REMARK  100  A    between atoms: _282  and  _284
REMARK  101  A    between atoms: _284  and  _285
REMARK  102  A    between atoms: _287  and  _289
REMARK  103  A    between atoms: _289  and  _290
REMARK  104  A    between atoms: _289  and  _292
REMARK  105  A    between atoms: _292  and  _293
REMARK  106  A    between atoms: _295  and  _297
REMARK  107  A    between atoms: _297  and  _298
REMARK  108  A    between atoms: _297  and  _300
REMARK  109  A    between atoms: _300  and  _301
REMARK  110  A    between atoms: _304  and  _306
REMARK  111  A    between atoms: _306  and  _307
REMARK  112  A    between atoms: _306  and  _309
REMARK  113  A    between atoms: _309  and  _310
REMARK  114  A    between atoms: _313  and  _315
REMARK  115  A    between atoms: _315  and  _316
REMARK  116  A    between atoms: _315  and  _318
REMARK  117  A    between atoms: _318  and  _319
REMARK  118  A    between atoms: _323  and  _324
REMARK  119  A    between atoms: _330  and  _331
REMARK  120  A    between atoms: _336  and  _338
REMARK  121  A    between atoms: _338  and  _339
REMARK  122  A    between atoms: _338  and  _341
REMARK  123  A    between atoms: _341  and  _342
REMARK  124  A    between atoms: _345  and  _347
REMARK  125  A    between atoms: _347  and  _348
REMARK  126  A    between atoms: _347  and  _350
REMARK  127  A    between atoms: _350  and  _351
REMARK  128  A    between atoms: _354  and  _356
REMARK  129  A    between atoms: _356  and  _357
REMARK  130  A    between atoms: _356  and  _359
REMARK  131  A    between atoms: _361  and  _363
REMARK  132  A    between atoms: _363  and  _364
REMARK  133  A    between atoms: _363  and  _366
REMARK  134  A    between atoms: _369  and  _371
REMARK  135  A    between atoms: _371  and  _372
REMARK  136  A    between atoms: _371  and  _374
REMARK  137  A    between atoms: _374  and  _375
REMARK  138  A    between atoms: _385  and  _387
REMARK  139  A    between atoms: _387  and  _388
REMARK  140  A    between atoms: _387  and  _390
REMARK  141  A    between atoms: _390  and  _391
REMARK  142  A    between atoms: _396  and  _398
REMARK  143  A    between atoms: _398  and  _399
REMARK  144  A    between atoms: _398  and  _401
REMARK  145  A    between atoms: _401  and  _402
REMARK  146  A    between atoms: _402  and  _403
REMARK  147  A    between atoms: _403  and  _404
REMARK                            x       y       z     vdW  Elec       q    Type
REMARK                         _______ _______ _______ _____ _____    ______ ____
ROOT
ATOM      1  O   HOH     1      -0.873   3.883  10.333  0.00  0.00    +0.000 OA
ENDROOT
TORSDOF 0
REMARK  Name = ../refined-set-2016/4rux/4rux_pocket.pdb
REMARK  147 active torsions:
REMARK  status: ('A' for Active; 'I' for Inactive)
REMARK    1  A    between atoms: _1  and  _3
REMARK    2  A    between atoms: _3  and  _4
REMARK    3  A    between atoms: _3  and  _6
REMARK    4  A    between atoms: _6  and  _7
REMARK    5  A    between atoms: _17  and  _19
REMARK    6  A    between atoms: _19  and  _20
REMARK    7  A    between atoms: _19  and  _22
REMARK    8  A    between atoms: _22  and  _23
REMARK    9  A    between atoms: _28  and  _29
REMARK   10  A    between atoms: _31  and  _33
REMARK   11  A    between atoms: _33  and  _34
REMARK   12  A    between atoms: _33  and  _36
REMARK   13  A    between atoms: _36  and  _37
REMARK   14  A    between atoms: _40  and  _41
REMARK   15  A    between atoms: _46  and  _48
REMARK   16  A    between atoms: _48  and  _49
REMARK   17  A    between atoms: _48  and  _51
REMARK   18  A    between atoms: _51  and  _52
REMARK   19  A    between atoms: _57  and  _59
REMARK   20  A    between atoms: _59  and  _60
REMARK   21  A    between atoms: _63  and  _65
REMARK   22  A    between atoms: _65  and  _66
REMARK   23  A    between atoms: _65  and  _68
REMARK   24  A    between atoms: _68  and  _69
REMARK   25  A    between atoms: _74  and  _76
REMARK   26  A    between atoms: _76  and  _77
REMARK   27  A    between atoms: _76  and  _79
REMARK   28  A    between atoms: _79  and  _80
REMARK   29  A    between atoms: _83  and  _85
REMARK   30  A    between atoms: _85  and  _86
REMARK   31  A    between atoms: _85  and  _88
REMARK   32  A    between atoms: _88  and  _89
REMARK   33  A    between atoms: _89  and  _90
REMARK   34  A    between atoms: _95  and  _97
REMARK   35  A    between atoms: _97  and  _98
REMARK   36  A    between atoms: _97  and  _100
REMARK   37  A    between atoms: _100  and  _101
REMARK   38  A    between atoms: _107  and  _109
REMARK   39  A    between atoms: _120  and  _123
REMARK   40  A    between atoms: _123  and  _124
REMARK   41  A    between atoms: _132  and  _133
REMARK   42  A    between atoms: _141  and  _143
REMARK   43  A    between atoms: _143  and  _144
REMARK   44  A    between atoms: _143  and  _146
REMARK   45  A    between atoms: _146  and  _147
REMARK   46  A    between atoms: _147  and  _148
REMARK   47  A    between atoms: _151  and  _153
REMARK   48  A    between atoms: _153  and  _154
REMARK   49  A    between atoms: _153  and  _156
REMARK   50  A    between atoms: _156  and  _157
REMARK   51  A    between atoms: _162  and  _164
REMARK   52  A    between atoms: _164  and  _165
REMARK   53  A    between atoms: _164  and  _167
REMARK   54  A    between atoms: _167  and  _168
REMARK   55  A    between atoms: _168  and  _169
REMARK   56  A    between atoms: _172  and  _174
REMARK   57  A    between atoms: _174  and  _175
REMARK   58  A    between atoms: _174  and  _177
REMARK   59  A    between atoms: _177  and  _178
REMARK   60  A    between atoms: _181  and  _183
REMARK   61  A    between atoms: _183  and  _184
REMARK   62  A    between atoms: _183  and  _186
REMARK   63  A    between atoms: _186  and  _187
REMARK   64  A    between atoms: _188  and  ZN_413
REMARK   65  A    between atoms: _192  and  _194
REMARK   66  A    between atoms: _194  and  _195
REMARK   67  A    between atoms: _194  and  _197
REMARK   68  A    between atoms: _197  and  _198
REMARK   69  A    between atoms: _201  and  _203
REMARK   70  A    between atoms: _203  and  _204
REMARK   71  A    between atoms: _203  and  _206
REMARK   72  A    between atoms: _209  and  _211
REMARK   73  A    between atoms: _211  and  _212
REMARK   74  A    between atoms: _211  and  _214
REMARK   75  A    between atoms: _214  and  _215
REMARK   76  A    between atoms: _220  and  _222
REMARK   77  A    between atoms: _222  and  _223
REMARK   78  A    between atoms: _222  and  _225
REMARK   79  A    between atoms: _225  and  _226
REMARK   80  A    between atoms: _232  and  _234
REMARK   81  A    between atoms: _234  and  _235
REMARK   82  A    between atoms: _237  and  _239
REMARK   83  A    between atoms: _239  and  _240
REMARK   84  A    between atoms: _239  and  _242
REMARK   85  A    between atoms: _245  and  _247
REMARK   86  A    between atoms: _247  and  _248
REMARK   87  A    between atoms: _247  and  _250
REMARK   88  A    between atoms: _250  and  _251
REMARK   89  A    between atoms: _254  and  _256
REMARK   90  A    between atoms: _256  and  _257
REMARK   91  A    between atoms: _260  and  _262
REMARK   92  A    between atoms: _262  and  _263
REMARK   93  A    between atoms: _262  and  _265
REMARK   94  A    between atoms: _268  and  _270
REMARK   95  A    between atoms: _270  and  _271
REMARK   96  A    between atoms: _270  and  _273
REMARK   97  A    between atoms: _273  and  _274
REMARK   98  A    between atoms: _277  and  _279
REMARK   99  A    between atoms: _279  and  _280
REMARK  100  A    between atoms: _282  and  _284
REMARK  101  A    between atoms: _284  and  _285
REMARK  102  A    between atoms: _287  and  _289
REMARK  103  A    between atoms: _289  and  _290
REMARK  104  A    between atoms: _289  and  _292
REMARK  105  A    between atoms: _292  and  _293
REMARK  106  A    between atoms: _295  and  _297
REMARK  107  A    between atoms: _297  and  _298
REMARK  108  A    between atoms: _297  and  _300
REMARK  109  A    between atoms: _300  and  _301
REMARK  110  A    between atoms: _304  and  _306
REMARK  111  A    between atoms: _306  and  _307
REMARK  112  A    between atoms: _306  and  _309
REMARK  113  A    between atoms: _309  and  _310
REMARK  114  A    between atoms: _313  and  _315
REMARK  115  A    between atoms: _315  and  _316
REMARK  116  A    between atoms: _315  and  _318
REMARK  117  A    between atoms: _318  and  _319
REMARK  118  A    between atoms: _323  and  _324
REMARK  119  A    between atoms: _330  and  _331
REMARK  120  A    between atoms: _336  and  _338
REMARK  121  A    between atoms: _338  and  _339
REMARK  122  A    between atoms: _338  and  _341
REMARK  123  A    between atoms: _341  and  _342
REMARK  124  A    between atoms: _345  and  _347
REMARK  125  A    between atoms: _347  and  _348
REMARK  126  A    between atoms: _347  and  _350
REMARK  127  A    between atoms: _350  and  _351
REMARK  128  A    between atoms: _354  and  _356
REMARK  129  A    between atoms: _356  and  _357
REMARK  130  A    between atoms: _356  and  _359
REMARK  131  A    between atoms: _361  and  _363
REMARK  132  A    between atoms: _363  and  _364
REMARK  133  A    between atoms: _363  and  _366
REMARK  134  A    between atoms: _369  and  _371
REMARK  135  A    between atoms: _371  and  _372
REMARK  136  A    between atoms: _371  and  _374
REMARK  137  A    between atoms: _374  and  _375
REMARK  138  A    between atoms: _385  and  _387
REMARK  139  A    between atoms: _387  and  _388
REMARK  140  A    between atoms: _387  and  _390
REMARK  141  A    between atoms: _390  and  _391
REMARK  142  A    between atoms: _396  and  _398
REMARK  143  A    between atoms: _398  and  _399
REMARK  144  A    between atoms: _398  and  _401
REMARK  145  A    between atoms: _401  and  _402
REMARK  146  A    between atoms: _402  and  _403
REMARK  147  A    between atoms: _403  and  _404
REMARK                            x       y       z     vdW  Elec       q    Type
REMARK                         _______ _______ _______ _____ _____    ______ ____
ROOT
ATOM      1  O   HOH     1       1.120   4.990  12.079  0.00  0.00    +0.000 OA
ENDROOT
TORSDOF 0
REMARK  Name = ../refined-set-2016/4rux/4rux_pocket.pdb
REMARK  147 active torsions:
REMARK  status: ('A' for Active; 'I' for Inactive)
REMARK    1  A    between atoms: _1  and  _3
REMARK    2  A    between atoms: _3  and  _4
REMARK    3  A    between atoms: _3  and  _6
REMARK    4  A    between atoms: _6  and  _7
REMARK    5  A    between atoms: _17  and  _19
REMARK    6  A    between atoms: _19  and  _20
REMARK    7  A    between atoms: _19  and  _22
REMARK    8  A    between atoms: _22  and  _23
REMARK    9  A    between atoms: _28  and  _29
REMARK   10  A    between atoms: _31  and  _33
REMARK   11  A    between atoms: _33  and  _34
REMARK   12  A    between atoms: _33  and  _36
REMARK   13  A    between atoms: _36  and  _37
REMARK   14  A    between atoms: _40  and  _41
REMARK   15  A    between atoms: _46  and  _48
REMARK   16  A    between atoms: _48  and  _49
REMARK   17  A    between atoms: _48  and  _51
REMARK   18  A    between atoms: _51  and  _52
REMARK   19  A    between atoms: _57  and  _59
REMARK   20  A    between atoms: _59  and  _60
REMARK   21  A    between atoms: _63  and  _65
REMARK   22  A    between atoms: _65  and  _66
REMARK   23  A    between atoms: _65  and  _68
REMARK   24  A    between atoms: _68  and  _69
REMARK   25  A    between atoms: _74  and  _76
REMARK   26  A    between atoms: _76  and  _77
REMARK   27  A    between atoms: _76  and  _79
REMARK   28  A    between atoms: _79  and  _80
REMARK   29  A    between atoms: _83  and  _85
REMARK   30  A    between atoms: _85  and  _86
REMARK   31  A    between atoms: _85  and  _88
REMARK   32  A    between atoms: _88  and  _89
REMARK   33  A    between atoms: _89  and  _90
REMARK   34  A    between atoms: _95  and  _97
REMARK   35  A    between atoms: _97  and  _98
REMARK   36  A    between atoms: _97  and  _100
REMARK   37  A    between atoms: _100  and  _101
REMARK   38  A    between atoms: _107  and  _109
REMARK   39  A    between atoms: _120  and  _123
REMARK   40  A    between atoms: _123  and  _124
REMARK   41  A    between atoms: _132  and  _133
REMARK   42  A    between atoms: _141  and  _143
REMARK   43  A    between atoms: _143  and  _144
REMARK   44  A    between atoms: _143  and  _146
REMARK   45  A    between atoms: _146  and  _147
REMARK   46  A    between atoms: _147  and  _148
REMARK   47  A    between atoms: _151  and  _153
REMARK   48  A    between atoms: _153  and  _154
REMARK   49  A    between atoms: _153  and  _156
REMARK   50  A    between atoms: _156  and  _157
REMARK   51  A    between atoms: _162  and  _164
REMARK   52  A    between atoms: _164  and  _165
REMARK   53  A    between atoms: _164  and  _167
REMARK   54  A    between atoms: _167  and  _168
REMARK   55  A    between atoms: _168  and  _169
REMARK   56  A    between atoms: _172  and  _174
REMARK   57  A    between atoms: _174  and  _175
REMARK   58  A    between atoms: _174  and  _177
REMARK   59  A    between atoms: _177  and  _178
REMARK   60  A    between atoms: _181  and  _183
REMARK   61  A    between atoms: _183  and  _184
REMARK   62  A    between atoms: _183  and  _186
REMARK   63  A    between atoms: _186  and  _187
REMARK   64  A    between atoms: _188  and  ZN_413
REMARK   65  A    between atoms: _192  and  _194
REMARK   66  A    between atoms: _194  and  _195
REMARK   67  A    between atoms: _194  and  _197
REMARK   68  A    between atoms: _197  and  _198
REMARK   69  A    between atoms: _201  and  _203
REMARK   70  A    between atoms: _203  and  _204
REMARK   71  A    between atoms: _203  and  _206
REMARK   72  A    between atoms: _209  and  _211
REMARK   73  A    between atoms: _211  and  _212
REMARK   74  A    between atoms: _211  and  _214
REMARK   75  A    between atoms: _214  and  _215
REMARK   76  A    between atoms: _220  and  _222
REMARK   77  A    between atoms: _222  and  _223
REMARK   78  A    between atoms: _222  and  _225
REMARK   79  A    between atoms: _225  and  _226
REMARK   80  A    between atoms: _232  and  _234
REMARK   81  A    between atoms: _234  and  _235
REMARK   82  A    between atoms: _237  and  _239
REMARK   83  A    between atoms: _239  and  _240
REMARK   84  A    between atoms: _239  and  _242
REMARK   85  A    between atoms: _245  and  _247
REMARK   86  A    between atoms: _247  and  _248
REMARK   87  A    between atoms: _247  and  _250
REMARK   88  A    between atoms: _250  and  _251
REMARK   89  A    between atoms: _254  and  _256
REMARK   90  A    between atoms: _256  and  _257
REMARK   91  A    between atoms: _260  and  _262
REMARK   92  A    between atoms: _262  and  _263
REMARK   93  A    between atoms: _262  and  _265
REMARK   94  A    between atoms: _268  and  _270
REMARK   95  A    between atoms: _270  and  _271
REMARK   96  A    between atoms: _270  and  _273
REMARK   97  A    between atoms: _273  and  _274
REMARK   98  A    between atoms: _277  and  _279
REMARK   99  A    between atoms: _279  and  _280
REMARK  100  A    between atoms: _282  and  _284
REMARK  101  A    between atoms: _284  and  _285
REMARK  102  A    between atoms: _287  and  _289
REMARK  103  A    between atoms: _289  and  _290
REMARK  104  A    between atoms: _289  and  _292
REMARK  105  A    between atoms: _292  and  _293
REMARK  106  A    between atoms: _295  and  _297
REMARK  107  A    between atoms: _297  and  _298
REMARK  108  A    between atoms: _297  and  _300
REMARK  109  A    between atoms: _300  and  _301
REMARK  110  A    between atoms: _304  and  _306
REMARK  111  A    between atoms: _306  and  _307
REMARK  112  A    between atoms: _306  and  _309
REMARK  113  A    between atoms: _309  and  _310
REMARK  114  A    between atoms: _313  and  _315
REMARK  115  A    between atoms: _315  and  _316
REMARK  116  A    between atoms: _315  and  _318
REMARK  117  A    between atoms: _318  and  _319
REMARK  118  A    between atoms: _323  and  _324
REMARK  119  A    between atoms: _330  and  _331
REMARK  120  A    between atoms: _336  and  _338
REMARK  121  A    between atoms: _338  and  _339
REMARK  122  A    between atoms: _338  and  _341
REMARK  123  A    between atoms: _341  and  _342
REMARK  124  A    between atoms: _345  and  _347
REMARK  125  A    between atoms: _347  and  _348
REMARK  126  A    between atoms: _347  and  _350
REMARK  127  A    between atoms: _350  and  _351
REMARK  128  A    between atoms: _354  and  _356
REMARK  129  A    between atoms: _356  and  _357
REMARK  130  A    between atoms: _356  and  _359
REMARK  131  A    between atoms: _361  and  _363
REMARK  132  A    between atoms: _363  and  _364
REMARK  133  A    between atoms: _363  and  _366
REMARK  134  A    between atoms: _369  and  _371
REMARK  135  A    between atoms: _371  and  _372
REMARK  136  A    between atoms: _371  and  _374
REMARK  137  A    between atoms: _374  and  _375
REMARK  138  A    between atoms: _385  and  _387
REMARK  139  A    between atoms: _387  and  _388
REMARK  140  A    between atoms: _387  and  _390
REMARK  141  A    between atoms: _390  and  _391
REMARK  142  A    between atoms: _396  and  _398
REMARK  143  A    between atoms: _398  and  _399
REMARK  144  A    between atoms: _398  and  _401
REMARK  145  A    between atoms: _401  and  _402
REMARK  146  A    between atoms: _402  and  _403
REMARK  147  A    between atoms: _403  and  _404
REMARK                            x       y       z     vdW  Elec       q    Type
REMARK                         _______ _______ _______ _____ _____    ______ ____
ROOT
ATOM      1  O   HOH     1      -0.512  13.911  16.023  0.00  0.00    +0.000 OA
ENDROOT
TORSDOF 0
REMARK  Name = ../refined-set-2016/4rux/4rux_pocket.pdb
REMARK  147 active torsions:
REMARK  status: ('A' for Active; 'I' for Inactive)
REMARK    1  A    between atoms: _1  and  _3
REMARK    2  A    between atoms: _3  and  _4
REMARK    3  A    between atoms: _3  and  _6
REMARK    4  A    between atoms: _6  and  _7
REMARK    5  A    between atoms: _17  and  _19
REMARK    6  A    between atoms: _19  and  _20
REMARK    7  A    between atoms: _19  and  _22
REMARK    8  A    between atoms: _22  and  _23
REMARK    9  A    between atoms: _28  and  _29
REMARK   10  A    between atoms: _31  and  _33
REMARK   11  A    between atoms: _33  and  _34
REMARK   12  A    between atoms: _33  and  _36
REMARK   13  A    between atoms: _36  and  _37
REMARK   14  A    between atoms: _40  and  _41
REMARK   15  A    between atoms: _46  and  _48
REMARK   16  A    between atoms: _48  and  _49
REMARK   17  A    between atoms: _48  and  _51
REMARK   18  A    between atoms: _51  and  _52
REMARK   19  A    between atoms: _57  and  _59
REMARK   20  A    between atoms: _59  and  _60
REMARK   21  A    between atoms: _63  and  _65
REMARK   22  A    between atoms: _65  and  _66
REMARK   23  A    between atoms: _65  and  _68
REMARK   24  A    between atoms: _68  and  _69
REMARK   25  A    between atoms: _74  and  _76
REMARK   26  A    between atoms: _76  and  _77
REMARK   27  A    between atoms: _76  and  _79
REMARK   28  A    between atoms: _79  and  _80
REMARK   29  A    between atoms: _83  and  _85
REMARK   30  A    between atoms: _85  and  _86
REMARK   31  A    between atoms: _85  and  _88
REMARK   32  A    between atoms: _88  and  _89
REMARK   33  A    between atoms: _89  and  _90
REMARK   34  A    between atoms: _95  and  _97
REMARK   35  A    between atoms: _97  and  _98
REMARK   36  A    between atoms: _97  and  _100
REMARK   37  A    between atoms: _100  and  _101
REMARK   38  A    between atoms: _107  and  _109
REMARK   39  A    between atoms: _120  and  _123
REMARK   40  A    between atoms: _123  and  _124
REMARK   41  A    between atoms: _132  and  _133
REMARK   42  A    between atoms: _141  and  _143
REMARK   43  A    between atoms: _143  and  _144
REMARK   44  A    between atoms: _143  and  _146
REMARK   45  A    between atoms: _146  and  _147
REMARK   46  A    between atoms: _147  and  _148
REMARK   47  A    between atoms: _151  and  _153
REMARK   48  A    between atoms: _153  and  _154
REMARK   49  A    between atoms: _153  and  _156
REMARK   50  A    between atoms: _156  and  _157
REMARK   51  A    between atoms: _162  and  _164
REMARK   52  A    between atoms: _164  and  _165
REMARK   53  A    between atoms: _164  and  _167
REMARK   54  A    between atoms: _167  and  _168
REMARK   55  A    between atoms: _168  and  _169
REMARK   56  A    between atoms: _172  and  _174
REMARK   57  A    between atoms: _174  and  _175
REMARK   58  A    between atoms: _174  and  _177
REMARK   59  A    between atoms: _177  and  _178
REMARK   60  A    between atoms: _181  and  _183
REMARK   61  A    between atoms: _183  and  _184
REMARK   62  A    between atoms: _183  and  _186
REMARK   63  A    between atoms: _186  and  _187
REMARK   64  A    between atoms: _188  and  ZN_413
REMARK   65  A    between atoms: _192  and  _194
REMARK   66  A    between atoms: _194  and  _195
REMARK   67  A    between atoms: _194  and  _197
REMARK   68  A    between atoms: _197  and  _198
REMARK   69  A    between atoms: _201  and  _203
REMARK   70  A    between atoms: _203  and  _204
REMARK   71  A    between atoms: _203  and  _206
REMARK   72  A    between atoms: _209  and  _211
REMARK   73  A    between atoms: _211  and  _212
REMARK   74  A    between atoms: _211  and  _214
REMARK   75  A    between atoms: _214  and  _215
REMARK   76  A    between atoms: _220  and  _222
REMARK   77  A    between atoms: _222  and  _223
REMARK   78  A    between atoms: _222  and  _225
REMARK   79  A    between atoms: _225  and  _226
REMARK   80  A    between atoms: _232  and  _234
REMARK   81  A    between atoms: _234  and  _235
REMARK   82  A    between atoms: _237  and  _239
REMARK   83  A    between atoms: _239  and  _240
REMARK   84  A    between atoms: _239  and  _242
REMARK   85  A    between atoms: _245  and  _247
REMARK   86  A    between atoms: _247  and  _248
REMARK   87  A    between atoms: _247  and  _250
REMARK   88  A    between atoms: _250  and  _251
REMARK   89  A    between atoms: _254  and  _256
REMARK   90  A    between atoms: _256  and  _257
REMARK   91  A    between atoms: _260  and  _262
REMARK   92  A    between atoms: _262  and  _263
REMARK   93  A    between atoms: _262  and  _265
REMARK   94  A    between atoms: _268  and  _270
REMARK   95  A    between atoms: _270  and  _271
REMARK   96  A    between atoms: _270  and  _273
REMARK   97  A    between atoms: _273  and  _274
REMARK   98  A    between atoms: _277  and  _279
REMARK   99  A    between atoms: _279  and  _280
REMARK  100  A    between atoms: _282  and  _284
REMARK  101  A    between atoms: _284  and  _285
REMARK  102  A    between atoms: _287  and  _289
REMARK  103  A    between atoms: _289  and  _290
REMARK  104  A    between atoms: _289  and  _292
REMARK  105  A    between atoms: _292  and  _293
REMARK  106  A    between atoms: _295  and  _297
REMARK  107  A    between atoms: _297  and  _298
REMARK  108  A    between atoms: _297  and  _300
REMARK  109  A    between atoms: _300  and  _301
REMARK  110  A    between atoms: _304  and  _306
REMARK  111  A    between atoms: _306  and  _307
REMARK  112  A    between atoms: _306  and  _309
REMARK  113  A    between atoms: _309  and  _310
REMARK  114  A    between atoms: _313  and  _315
REMARK  115  A    between atoms: _315  and  _316
REMARK  116  A    between atoms: _315  and  _318
REMARK  117  A    between atoms: _318  and  _319
REMARK  118  A    between atoms: _323  and  _324
REMARK  119  A    between atoms: _330  and  _331
REMARK  120  A    between atoms: _336  and  _338
REMARK  121  A    between atoms: _338  and  _339
REMARK  122  A    between atoms: _338  and  _341
REMARK  123  A    between atoms: _341  and  _342
REMARK  124  A    between atoms: _345  and  _347
REMARK  125  A    between atoms: _347  and  _348
REMARK  126  A    between atoms: _347  and  _350
REMARK  127  A    between atoms: _350  and  _351
REMARK  128  A    between atoms: _354  and  _356
REMARK  129  A    between atoms: _356  and  _357
REMARK  130  A    between atoms: _356  and  _359
REMARK  131  A    between atoms: _361  and  _363
REMARK  132  A    between atoms: _363  and  _364
REMARK  133  A    between atoms: _363  and  _366
REMARK  134  A    between atoms: _369  and  _371
REMARK  135  A    between atoms: _371  and  _372
REMARK  136  A    between atoms: _371  and  _374
REMARK  137  A    between atoms: _374  and  _375
REMARK  138  A    between atoms: _385  and  _387
REMARK  139  A    between atoms: _387  and  _388
REMARK  140  A    between atoms: _387  and  _390
REMARK  141  A    between atoms: _390  and  _391
REMARK  142  A    between atoms: _396  and  _398
REMARK  143  A    between atoms: _398  and  _399
REMARK  144  A    between atoms: _398  and  _401
REMARK  145  A    between atoms: _401  and  _402
REMARK  146  A    between atoms: _402  and  _403
REMARK  147  A    between atoms: _403  and  _404
REMARK                            x       y       z     vdW  Elec       q    Type
REMARK                         _______ _______ _______ _____ _____    ______ ____
ROOT
ATOM      1  O   HOH     1      -8.176   7.891   8.480  0.00  0.00    +0.000 OA
ENDROOT
TORSDOF 0
REMARK  Name = ../refined-set-2016/4rux/4rux_pocket.pdb
REMARK  147 active torsions:
REMARK  status: ('A' for Active; 'I' for Inactive)
REMARK    1  A    between atoms: _1  and  _3
REMARK    2  A    between atoms: _3  and  _4
REMARK    3  A    between atoms: _3  and  _6
REMARK    4  A    between atoms: _6  and  _7
REMARK    5  A    between atoms: _17  and  _19
REMARK    6  A    between atoms: _19  and  _20
REMARK    7  A    between atoms: _19  and  _22
REMARK    8  A    between atoms: _22  and  _23
REMARK    9  A    between atoms: _28  and  _29
REMARK   10  A    between atoms: _31  and  _33
REMARK   11  A    between atoms: _33  and  _34
REMARK   12  A    between atoms: _33  and  _36
REMARK   13  A    between atoms: _36  and  _37
REMARK   14  A    between atoms: _40  and  _41
REMARK   15  A    between atoms: _46  and  _48
REMARK   16  A    between atoms: _48  and  _49
REMARK   17  A    between atoms: _48  and  _51
REMARK   18  A    between atoms: _51  and  _52
REMARK   19  A    between atoms: _57  and  _59
REMARK   20  A    between atoms: _59  and  _60
REMARK   21  A    between atoms: _63  and  _65
REMARK   22  A    between atoms: _65  and  _66
REMARK   23  A    between atoms: _65  and  _68
REMARK   24  A    between atoms: _68  and  _69
REMARK   25  A    between atoms: _74  and  _76
REMARK   26  A    between atoms: _76  and  _77
REMARK   27  A    between atoms: _76  and  _79
REMARK   28  A    between atoms: _79  and  _80
REMARK   29  A    between atoms: _83  and  _85
REMARK   30  A    between atoms: _85  and  _86
REMARK   31  A    between atoms: _85  and  _88
REMARK   32  A    between atoms: _88  and  _89
REMARK   33  A    between atoms: _89  and  _90
REMARK   34  A    between atoms: _95  and  _97
REMARK   35  A    between atoms: _97  and  _98
REMARK   36  A    between atoms: _97  and  _100
REMARK   37  A    between atoms: _100  and  _101
REMARK   38  A    between atoms: _107  and  _109
REMARK   39  A    between atoms: _120  and  _123
REMARK   40  A    between atoms: _123  and  _124
REMARK   41  A    between atoms: _132  and  _133
REMARK   42  A    between atoms: _141  and  _143
REMARK   43  A    between atoms: _143  and  _144
REMARK   44  A    between atoms: _143  and  _146
REMARK   45  A    between atoms: _146  and  _147
REMARK   46  A    between atoms: _147  and  _148
REMARK   47  A    between atoms: _151  and  _153
REMARK   48  A    between atoms: _153  and  _154
REMARK   49  A    between atoms: _153  and  _156
REMARK   50  A    between atoms: _156  and  _157
REMARK   51  A    between atoms: _162  and  _164
REMARK   52  A    between atoms: _164  and  _165
REMARK   53  A    between atoms: _164  and  _167
REMARK   54  A    between atoms: _167  and  _168
REMARK   55  A    between atoms: _168  and  _169
REMARK   56  A    between atoms: _172  and  _174
REMARK   57  A    between atoms: _174  and  _175
REMARK   58  A    between atoms: _174  and  _177
REMARK   59  A    between atoms: _177  and  _178
REMARK   60  A    between atoms: _181  and  _183
REMARK   61  A    between atoms: _183  and  _184
REMARK   62  A    between atoms: _183  and  _186
REMARK   63  A    between atoms: _186  and  _187
REMARK   64  A    between atoms: _188  and  ZN_413
REMARK   65  A    between atoms: _192  and  _194
REMARK   66  A    between atoms: _194  and  _195
REMARK   67  A    between atoms: _194  and  _197
REMARK   68  A    between atoms: _197  and  _198
REMARK   69  A    between atoms: _201  and  _203
REMARK   70  A    between atoms: _203  and  _204
REMARK   71  A    between atoms: _203  and  _206
REMARK   72  A    between atoms: _209  and  _211
REMARK   73  A    between atoms: _211  and  _212
REMARK   74  A    between atoms: _211  and  _214
REMARK   75  A    between atoms: _214  and  _215
REMARK   76  A    between atoms: _220  and  _222
REMARK   77  A    between atoms: _222  and  _223
REMARK   78  A    between atoms: _222  and  _225
REMARK   79  A    between atoms: _225  and  _226
REMARK   80  A    between atoms: _232  and  _234
REMARK   81  A    between atoms: _234  and  _235
REMARK   82  A    between atoms: _237  and  _239
REMARK   83  A    between atoms: _239  and  _240
REMARK   84  A    between atoms: _239  and  _242
REMARK   85  A    between atoms: _245  and  _247
REMARK   86  A    between atoms: _247  and  _248
REMARK   87  A    between atoms: _247  and  _250
REMARK   88  A    between atoms: _250  and  _251
REMARK   89  A    between atoms: _254  and  _256
REMARK   90  A    between atoms: _256  and  _257
REMARK   91  A    between atoms: _260  and  _262
REMARK   92  A    between atoms: _262  and  _263
REMARK   93  A    between atoms: _262  and  _265
REMARK   94  A    between atoms: _268  and  _270
REMARK   95  A    between atoms: _270  and  _271
REMARK   96  A    between atoms: _270  and  _273
REMARK   97  A    between atoms: _273  and  _274
REMARK   98  A    between atoms: _277  and  _279
REMARK   99  A    between atoms: _279  and  _280
REMARK  100  A    between atoms: _282  and  _284
REMARK  101  A    between atoms: _284  and  _285
REMARK  102  A    between atoms: _287  and  _289
REMARK  103  A    between atoms: _289  and  _290
REMARK  104  A    between atoms: _289  and  _292
REMARK  105  A    between atoms: _292  and  _293
REMARK  106  A    between atoms: _295  and  _297
REMARK  107  A    between atoms: _297  and  _298
REMARK  108  A    between atoms: _297  and  _300
REMARK  109  A    between atoms: _300  and  _301
REMARK  110  A    between atoms: _304  and  _306
REMARK  111  A    between atoms: _306  and  _307
REMARK  112  A    between atoms: _306  and  _309
REMARK  113  A    between atoms: _309  and  _310
REMARK  114  A    between atoms: _313  and  _315
REMARK  115  A    between atoms: _315  and  _316
REMARK  116  A    between atoms: _315  and  _318
REMARK  117  A    between atoms: _318  and  _319
REMARK  118  A    between atoms: _323  and  _324
REMARK  119  A    between atoms: _330  and  _331
REMARK  120  A    between atoms: _336  and  _338
REMARK  121  A    between atoms: _338  and  _339
REMARK  122  A    between atoms: _338  and  _341
REMARK  123  A    between atoms: _341  and  _342
REMARK  124  A    between atoms: _345  and  _347
REMARK  125  A    between atoms: _347  and  _348
REMARK  126  A    between atoms: _347  and  _350
REMARK  127  A    between atoms: _350  and  _351
REMARK  128  A    between atoms: _354  and  _356
REMARK  129  A    between atoms: _356  and  _357
REMARK  130  A    between atoms: _356  and  _359
REMARK  131  A    between atoms: _361  and  _363
REMARK  132  A    between atoms: _363  and  _364
REMARK  133  A    between atoms: _363  and  _366
REMARK  134  A    between atoms: _369  and  _371
REMARK  135  A    between atoms: _371  and  _372
REMARK  136  A    between atoms: _371  and  _374
REMARK  137  A    between atoms: _374  and  _375
REMARK  138  A    between atoms: _385  and  _387
REMARK  139  A    between atoms: _387  and  _388
REMARK  140  A    between atoms: _387  and  _390
REMARK  141  A    between atoms: _390  and  _391
REMARK  142  A    between atoms: _396  and  _398
REMARK  143  A    between atoms: _398  and  _399
REMARK  144  A    between atoms: _398  and  _401
REMARK  145  A    between atoms: _401  and  _402
REMARK  146  A    between atoms: _402  and  _403
REMARK  147  A    between atoms: _403  and  _404
REMARK                            x       y       z     vdW  Elec       q    Type
REMARK                         _______ _______ _______ _____ _____    ______ ____
ROOT
ATOM      1  O   HOH     1      -3.356   5.146   9.755  0.00  0.00    +0.000 OA
ENDROOT
TORSDOF 0
REMARK  Name = ../refined-set-2016/4rux/4rux_pocket.pdb
REMARK  147 active torsions:
REMARK  status: ('A' for Active; 'I' for Inactive)
REMARK    1  A    between atoms: _1  and  _3
REMARK    2  A    between atoms: _3  and  _4
REMARK    3  A    between atoms: _3  and  _6
REMARK    4  A    between atoms: _6  and  _7
REMARK    5  A    between atoms: _17  and  _19
REMARK    6  A    between atoms: _19  and  _20
REMARK    7  A    between atoms: _19  and  _22
REMARK    8  A    between atoms: _22  and  _23
REMARK    9  A    between atoms: _28  and  _29
REMARK   10  A    between atoms: _31  and  _33
REMARK   11  A    between atoms: _33  and  _34
REMARK   12  A    between atoms: _33  and  _36
REMARK   13  A    between atoms: _36  and  _37
REMARK   14  A    between atoms: _40  and  _41
REMARK   15  A    between atoms: _46  and  _48
REMARK   16  A    between atoms: _48  and  _49
REMARK   17  A    between atoms: _48  and  _51
REMARK   18  A    between atoms: _51  and  _52
REMARK   19  A    between atoms: _57  and  _59
REMARK   20  A    between atoms: _59  and  _60
REMARK   21  A    between atoms: _63  and  _65
REMARK   22  A    between atoms: _65  and  _66
REMARK   23  A    between atoms: _65  and  _68
REMARK   24  A    between atoms: _68  and  _69
REMARK   25  A    between atoms: _74  and  _76
REMARK   26  A    between atoms: _76  and  _77
REMARK   27  A    between atoms: _76  and  _79
REMARK   28  A    between atoms: _79  and  _80
REMARK   29  A    between atoms: _83  and  _85
REMARK   30  A    between atoms: _85  and  _86
REMARK   31  A    between atoms: _85  and  _88
REMARK   32  A    between atoms: _88  and  _89
REMARK   33  A    between atoms: _89  and  _90
REMARK   34  A    between atoms: _95  and  _97
REMARK   35  A    between atoms: _97  and  _98
REMARK   36  A    between atoms: _97  and  _100
REMARK   37  A    between atoms: _100  and  _101
REMARK   38  A    between atoms: _107  and  _109
REMARK   39  A    between atoms: _120  and  _123
REMARK   40  A    between atoms: _123  and  _124
REMARK   41  A    between atoms: _132  and  _133
REMARK   42  A    between atoms: _141  and  _143
REMARK   43  A    between atoms: _143  and  _144
REMARK   44  A    between atoms: _143  and  _146
REMARK   45  A    between atoms: _146  and  _147
REMARK   46  A    between atoms: _147  and  _148
REMARK   47  A    between atoms: _151  and  _153
REMARK   48  A    between atoms: _153  and  _154
REMARK   49  A    between atoms: _153  and  _156
REMARK   50  A    between atoms: _156  and  _157
REMARK   51  A    between atoms: _162  and  _164
REMARK   52  A    between atoms: _164  and  _165
REMARK   53  A    between atoms: _164  and  _167
REMARK   54  A    between atoms: _167  and  _168
REMARK   55  A    between atoms: _168  and  _169
REMARK   56  A    between atoms: _172  and  _174
REMARK   57  A    between atoms: _174  and  _175
REMARK   58  A    between atoms: _174  and  _177
REMARK   59  A    between atoms: _177  and  _178
REMARK   60  A    between atoms: _181  and  _183
REMARK   61  A    between atoms: _183  and  _184
REMARK   62  A    between atoms: _183  and  _186
REMARK   63  A    between atoms: _186  and  _187
REMARK   64  A    between atoms: _188  and  ZN_413
REMARK   65  A    between atoms: _192  and  _194
REMARK   66  A    between atoms: _194  and  _195
REMARK   67  A    between atoms: _194  and  _197
REMARK   68  A    between atoms: _197  and  _198
REMARK   69  A    between atoms: _201  and  _203
REMARK   70  A    between atoms: _203  and  _204
REMARK   71  A    between atoms: _203  and  _206
REMARK   72  A    between atoms: _209  and  _211
REMARK   73  A    between atoms: _211  and  _212
REMARK   74  A    between atoms: _211  and  _214
REMARK   75  A    between atoms: _214  and  _215
REMARK   76  A    between atoms: _220  and  _222
REMARK   77  A    between atoms: _222  and  _223
REMARK   78  A    between atoms: _222  and  _225
REMARK   79  A    between atoms: _225  and  _226
REMARK   80  A    between atoms: _232  and  _234
REMARK   81  A    between atoms: _234  and  _235
REMARK   82  A    between atoms: _237  and  _239
REMARK   83  A    between atoms: _239  and  _240
REMARK   84  A    between atoms: _239  and  _242
REMARK   85  A    between atoms: _245  and  _247
REMARK   86  A    between atoms: _247  and  _248
REMARK   87  A    between atoms: _247  and  _250
REMARK   88  A    between atoms: _250  and  _251
REMARK   89  A    between atoms: _254  and  _256
REMARK   90  A    between atoms: _256  and  _257
REMARK   91  A    between atoms: _260  and  _262
REMARK   92  A    between atoms: _262  and  _263
REMARK   93  A    between atoms: _262  and  _265
REMARK   94  A    between atoms: _268  and  _270
REMARK   95  A    between atoms: _270  and  _271
REMARK   96  A    between atoms: _270  and  _273
REMARK   97  A    between atoms: _273  and  _274
REMARK   98  A    between atoms: _277  and  _279
REMARK   99  A    between atoms: _279  and  _280
REMARK  100  A    between atoms: _282  and  _284
REMARK  101  A    between atoms: _284  and  _285
REMARK  102  A    between atoms: _287  and  _289
REMARK  103  A    between atoms: _289  and  _290
REMARK  104  A    between atoms: _289  and  _292
REMARK  105  A    between atoms: _292  and  _293
REMARK  106  A    between atoms: _295  and  _297
REMARK  107  A    between atoms: _297  and  _298
REMARK  108  A    between atoms: _297  and  _300
REMARK  109  A    between atoms: _300  and  _301
REMARK  110  A    between atoms: _304  and  _306
REMARK  111  A    between atoms: _306  and  _307
REMARK  112  A    between atoms: _306  and  _309
REMARK  113  A    between atoms: _309  and  _310
REMARK  114  A    between atoms: _313  and  _315
REMARK  115  A    between atoms: _315  and  _316
REMARK  116  A    between atoms: _315  and  _318
REMARK  117  A    between atoms: _318  and  _319
REMARK  118  A    between atoms: _323  and  _324
REMARK  119  A    between atoms: _330  and  _331
REMARK  120  A    between atoms: _336  and  _338
REMARK  121  A    between atoms: _338  and  _339
REMARK  122  A    between atoms: _338  and  _341
REMARK  123  A    between atoms: _341  and  _342
REMARK  124  A    between atoms: _345  and  _347
REMARK  125  A    between atoms: _347  and  _348
REMARK  126  A    between atoms: _347  and  _350
REMARK  127  A    between atoms: _350  and  _351
REMARK  128  A    between atoms: _354  and  _356
REMARK  129  A    between atoms: _356  and  _357
REMARK  130  A    between atoms: _356  and  _359
REMARK  131  A    between atoms: _361  and  _363
REMARK  132  A    between atoms: _363  and  _364
REMARK  133  A    between atoms: _363  and  _366
REMARK  134  A    between atoms: _369  and  _371
REMARK  135  A    between atoms: _371  and  _372
REMARK  136  A    between atoms: _371  and  _374
REMARK  137  A    between atoms: _374  and  _375
REMARK  138  A    between atoms: _385  and  _387
REMARK  139  A    between atoms: _387  and  _388
REMARK  140  A    between atoms: _387  and  _390
REMARK  141  A    between atoms: _390  and  _391
REMARK  142  A    between atoms: _396  and  _398
REMARK  143  A    between atoms: _398  and  _399
REMARK  144  A    between atoms: _398  and  _401
REMARK  145  A    between atoms: _401  and  _402
REMARK  146  A    between atoms: _402  and  _403
REMARK  147  A    between atoms: _403  and  _404
REMARK                            x       y       z     vdW  Elec       q    Type
REMARK                         _______ _______ _______ _____ _____    ______ ____
ROOT
ATOM      1  O   HOH     1       3.536   4.552  10.784  0.00  0.00    +0.000 OA
ENDROOT
TORSDOF 0
REMARK  Name = ../refined-set-2016/4rux/4rux_pocket.pdb
REMARK  147 active torsions:
REMARK  status: ('A' for Active; 'I' for Inactive)
REMARK    1  A    between atoms: _1  and  _3
REMARK    2  A    between atoms: _3  and  _4
REMARK    3  A    between atoms: _3  and  _6
REMARK    4  A    between atoms: _6  and  _7
REMARK    5  A    between atoms: _17  and  _19
REMARK    6  A    between atoms: _19  and  _20
REMARK    7  A    between atoms: _19  and  _22
REMARK    8  A    between atoms: _22  and  _23
REMARK    9  A    between atoms: _28  and  _29
REMARK   10  A    between atoms: _31  and  _33
REMARK   11  A    between atoms: _33  and  _34
REMARK   12  A    between atoms: _33  and  _36
REMARK   13  A    between atoms: _36  and  _37
REMARK   14  A    between atoms: _40  and  _41
REMARK   15  A    between atoms: _46  and  _48
REMARK   16  A    between atoms: _48  and  _49
REMARK   17  A    between atoms: _48  and  _51
REMARK   18  A    between atoms: _51  and  _52
REMARK   19  A    between atoms: _57  and  _59
REMARK   20  A    between atoms: _59  and  _60
REMARK   21  A    between atoms: _63  and  _65
REMARK   22  A    between atoms: _65  and  _66
REMARK   23  A    between atoms: _65  and  _68
REMARK   24  A    between atoms: _68  and  _69
REMARK   25  A    between atoms: _74  and  _76
REMARK   26  A    between atoms: _76  and  _77
REMARK   27  A    between atoms: _76  and  _79
REMARK   28  A    between atoms: _79  and  _80
REMARK   29  A    between atoms: _83  and  _85
REMARK   30  A    between atoms: _85  and  _86
REMARK   31  A    between atoms: _85  and  _88
REMARK   32  A    between atoms: _88  and  _89
REMARK   33  A    between atoms: _89  and  _90
REMARK   34  A    between atoms: _95  and  _97
REMARK   35  A    between atoms: _97  and  _98
REMARK   36  A    between atoms: _97  and  _100
REMARK   37  A    between atoms: _100  and  _101
REMARK   38  A    between atoms: _107  and  _109
REMARK   39  A    between atoms: _120  and  _123
REMARK   40  A    between atoms: _123  and  _124
REMARK   41  A    between atoms: _132  and  _133
REMARK   42  A    between atoms: _141  and  _143
REMARK   43  A    between atoms: _143  and  _144
REMARK   44  A    between atoms: _143  and  _146
REMARK   45  A    between atoms: _146  and  _147
REMARK   46  A    between atoms: _147  and  _148
REMARK   47  A    between atoms: _151  and  _153
REMARK   48  A    between atoms: _153  and  _154
REMARK   49  A    between atoms: _153  and  _156
REMARK   50  A    between atoms: _156  and  _157
REMARK   51  A    between atoms: _162  and  _164
REMARK   52  A    between atoms: _164  and  _165
REMARK   53  A    between atoms: _164  and  _167
REMARK   54  A    between atoms: _167  and  _168
REMARK   55  A    between atoms: _168  and  _169
REMARK   56  A    between atoms: _172  and  _174
REMARK   57  A    between atoms: _174  and  _175
REMARK   58  A    between atoms: _174  and  _177
REMARK   59  A    between atoms: _177  and  _178
REMARK   60  A    between atoms: _181  and  _183
REMARK   61  A    between atoms: _183  and  _184
REMARK   62  A    between atoms: _183  and  _186
REMARK   63  A    between atoms: _186  and  _187
REMARK   64  A    between atoms: _188  and  ZN_413
REMARK   65  A    between atoms: _192  and  _194
REMARK   66  A    between atoms: _194  and  _195
REMARK   67  A    between atoms: _194  and  _197
REMARK   68  A    between atoms: _197  and  _198
REMARK   69  A    between atoms: _201  and  _203
REMARK   70  A    between atoms: _203  and  _204
REMARK   71  A    between atoms: _203  and  _206
REMARK   72  A    between atoms: _209  and  _211
REMARK   73  A    between atoms: _211  and  _212
REMARK   74  A    between atoms: _211  and  _214
REMARK   75  A    between atoms: _214  and  _215
REMARK   76  A    between atoms: _220  and  _222
REMARK   77  A    between atoms: _222  and  _223
REMARK   78  A    between atoms: _222  and  _225
REMARK   79  A    between atoms: _225  and  _226
REMARK   80  A    between atoms: _232  and  _234
REMARK   81  A    between atoms: _234  and  _235
REMARK   82  A    between atoms: _237  and  _239
REMARK   83  A    between atoms: _239  and  _240
REMARK   84  A    between atoms: _239  and  _242
REMARK   85  A    between atoms: _245  and  _247
REMARK   86  A    between atoms: _247  and  _248
REMARK   87  A    between atoms: _247  and  _250
REMARK   88  A    between atoms: _250  and  _251
REMARK   89  A    between atoms: _254  and  _256
REMARK   90  A    between atoms: _256  and  _257
REMARK   91  A    between atoms: _260  and  _262
REMARK   92  A    between atoms: _262  and  _263
REMARK   93  A    between atoms: _262  and  _265
REMARK   94  A    between atoms: _268  and  _270
REMARK   95  A    between atoms: _270  and  _271
REMARK   96  A    between atoms: _270  and  _273
REMARK   97  A    between atoms: _273  and  _274
REMARK   98  A    between atoms: _277  and  _279
REMARK   99  A    between atoms: _279  and  _280
REMARK  100  A    between atoms: _282  and  _284
REMARK  101  A    between atoms: _284  and  _285
REMARK  102  A    between atoms: _287  and  _289
REMARK  103  A    between atoms: _289  and  _290
REMARK  104  A    between atoms: _289  and  _292
REMARK  105  A    between atoms: _292  and  _293
REMARK  106  A    between atoms: _295  and  _297
REMARK  107  A    between atoms: _297  and  _298
REMARK  108  A    between atoms: _297  and  _300
REMARK  109  A    between atoms: _300  and  _301
REMARK  110  A    between atoms: _304  and  _306
REMARK  111  A    between atoms: _306  and  _307
REMARK  112  A    between atoms: _306  and  _309
REMARK  113  A    between atoms: _309  and  _310
REMARK  114  A    between atoms: _313  and  _315
REMARK  115  A    between atoms: _315  and  _316
REMARK  116  A    between atoms: _315  and  _318
REMARK  117  A    between atoms: _318  and  _319
REMARK  118  A    between atoms: _323  and  _324
REMARK  119  A    between atoms: _330  and  _331
REMARK  120  A    between atoms: _336  and  _338
REMARK  121  A    between atoms: _338  and  _339
REMARK  122  A    between atoms: _338  and  _341
REMARK  123  A    between atoms: _341  and  _342
REMARK  124  A    between atoms: _345  and  _347
REMARK  125  A    between atoms: _347  and  _348
REMARK  126  A    between atoms: _347  and  _350
REMARK  127  A    between atoms: _350  and  _351
REMARK  128  A    between atoms: _354  and  _356
REMARK  129  A    between atoms: _356  and  _357
REMARK  130  A    between atoms: _356  and  _359
REMARK  131  A    between atoms: _361  and  _363
REMARK  132  A    between atoms: _363  and  _364
REMARK  133  A    between atoms: _363  and  _366
REMARK  134  A    between atoms: _369  and  _371
REMARK  135  A    between atoms: _371  and  _372
REMARK  136  A    between atoms: _371  and  _374
REMARK  137  A    between atoms: _374  and  _375
REMARK  138  A    between atoms: _385  and  _387
REMARK  139  A    between atoms: _387  and  _388
REMARK  140  A    between atoms: _387  and  _390
REMARK  141  A    between atoms: _390  and  _391
REMARK  142  A    between atoms: _396  and  _398
REMARK  143  A    between atoms: _398  and  _399
REMARK  144  A    between atoms: _398  and  _401
REMARK  145  A    between atoms: _401  and  _402
REMARK  146  A    between atoms: _402  and  _403
REMARK  147  A    between atoms: _403  and  _404
REMARK                            x       y       z     vdW  Elec       q    Type
REMARK                         _______ _______ _______ _____ _____    ______ ____
ROOT
ATOM      1  O   HOH     1      -0.578  11.965  14.125  0.00  0.00    +0.000 OA
ENDROOT
TORSDOF 0
REMARK  Name = ../refined-set-2016/4rux/4rux_pocket.pdb
REMARK  147 active torsions:
REMARK  status: ('A' for Active; 'I' for Inactive)
REMARK    1  A    between atoms: _1  and  _3
REMARK    2  A    between atoms: _3  and  _4
REMARK    3  A    between atoms: _3  and  _6
REMARK    4  A    between atoms: _6  and  _7
REMARK    5  A    between atoms: _17  and  _19
REMARK    6  A    between atoms: _19  and  _20
REMARK    7  A    between atoms: _19  and  _22
REMARK    8  A    between atoms: _22  and  _23
REMARK    9  A    between atoms: _28  and  _29
REMARK   10  A    between atoms: _31  and  _33
REMARK   11  A    between atoms: _33  and  _34
REMARK   12  A    between atoms: _33  and  _36
REMARK   13  A    between atoms: _36  and  _37
REMARK   14  A    between atoms: _40  and  _41
REMARK   15  A    between atoms: _46  and  _48
REMARK   16  A    between atoms: _48  and  _49
REMARK   17  A    between atoms: _48  and  _51
REMARK   18  A    between atoms: _51  and  _52
REMARK   19  A    between atoms: _57  and  _59
REMARK   20  A    between atoms: _59  and  _60
REMARK   21  A    between atoms: _63  and  _65
REMARK   22  A    between atoms: _65  and  _66
REMARK   23  A    between atoms: _65  and  _68
REMARK   24  A    between atoms: _68  and  _69
REMARK   25  A    between atoms: _74  and  _76
REMARK   26  A    between atoms: _76  and  _77
REMARK   27  A    between atoms: _76  and  _79
REMARK   28  A    between atoms: _79  and  _80
REMARK   29  A    between atoms: _83  and  _85
REMARK   30  A    between atoms: _85  and  _86
REMARK   31  A    between atoms: _85  and  _88
REMARK   32  A    between atoms: _88  and  _89
REMARK   33  A    between atoms: _89  and  _90
REMARK   34  A    between atoms: _95  and  _97
REMARK   35  A    between atoms: _97  and  _98
REMARK   36  A    between atoms: _97  and  _100
REMARK   37  A    between atoms: _100  and  _101
REMARK   38  A    between atoms: _107  and  _109
REMARK   39  A    between atoms: _120  and  _123
REMARK   40  A    between atoms: _123  and  _124
REMARK   41  A    between atoms: _132  and  _133
REMARK   42  A    between atoms: _141  and  _143
REMARK   43  A    between atoms: _143  and  _144
REMARK   44  A    between atoms: _143  and  _146
REMARK   45  A    between atoms: _146  and  _147
REMARK   46  A    between atoms: _147  and  _148
REMARK   47  A    between atoms: _151  and  _153
REMARK   48  A    between atoms: _153  and  _154
REMARK   49  A    between atoms: _153  and  _156
REMARK   50  A    between atoms: _156  and  _157
REMARK   51  A    between atoms: _162  and  _164
REMARK   52  A    between atoms: _164  and  _165
REMARK   53  A    between atoms: _164  and  _167
REMARK   54  A    between atoms: _167  and  _168
REMARK   55  A    between atoms: _168  and  _169
REMARK   56  A    between atoms: _172  and  _174
REMARK   57  A    between atoms: _174  and  _175
REMARK   58  A    between atoms: _174  and  _177
REMARK   59  A    between atoms: _177  and  _178
REMARK   60  A    between atoms: _181  and  _183
REMARK   61  A    between atoms: _183  and  _184
REMARK   62  A    between atoms: _183  and  _186
REMARK   63  A    between atoms: _186  and  _187
REMARK   64  A    between atoms: _188  and  ZN_413
REMARK   65  A    between atoms: _192  and  _194
REMARK   66  A    between atoms: _194  and  _195
REMARK   67  A    between atoms: _194  and  _197
REMARK   68  A    between atoms: _197  and  _198
REMARK   69  A    between atoms: _201  and  _203
REMARK   70  A    between atoms: _203  and  _204
REMARK   71  A    between atoms: _203  and  _206
REMARK   72  A    between atoms: _209  and  _211
REMARK   73  A    between atoms: _211  and  _212
REMARK   74  A    between atoms: _211  and  _214
REMARK   75  A    between atoms: _214  and  _215
REMARK   76  A    between atoms: _220  and  _222
REMARK   77  A    between atoms: _222  and  _223
REMARK   78  A    between atoms: _222  and  _225
REMARK   79  A    between atoms: _225  and  _226
REMARK   80  A    between atoms: _232  and  _234
REMARK   81  A    between atoms: _234  and  _235
REMARK   82  A    between atoms: _237  and  _239
REMARK   83  A    between atoms: _239  and  _240
REMARK   84  A    between atoms: _239  and  _242
REMARK   85  A    between atoms: _245  and  _247
REMARK   86  A    between atoms: _247  and  _248
REMARK   87  A    between atoms: _247  and  _250
REMARK   88  A    between atoms: _250  and  _251
REMARK   89  A    between atoms: _254  and  _256
REMARK   90  A    between atoms: _256  and  _257
REMARK   91  A    between atoms: _260  and  _262
REMARK   92  A    between atoms: _262  and  _263
REMARK   93  A    between atoms: _262  and  _265
REMARK   94  A    between atoms: _268  and  _270
REMARK   95  A    between atoms: _270  and  _271
REMARK   96  A    between atoms: _270  and  _273
REMARK   97  A    between atoms: _273  and  _274
REMARK   98  A    between atoms: _277  and  _279
REMARK   99  A    between atoms: _279  and  _280
REMARK  100  A    between atoms: _282  and  _284
REMARK  101  A    between atoms: _284  and  _285
REMARK  102  A    between atoms: _287  and  _289
REMARK  103  A    between atoms: _289  and  _290
REMARK  104  A    between atoms: _289  and  _292
REMARK  105  A    between atoms: _292  and  _293
REMARK  106  A    between atoms: _295  and  _297
REMARK  107  A    between atoms: _297  and  _298
REMARK  108  A    between atoms: _297  and  _300
REMARK  109  A    between atoms: _300  and  _301
REMARK  110  A    between atoms: _304  and  _306
REMARK  111  A    between atoms: _306  and  _307
REMARK  112  A    between atoms: _306  and  _309
REMARK  113  A    between atoms: _309  and  _310
REMARK  114  A    between atoms: _313  and  _315
REMARK  115  A    between atoms: _315  and  _316
REMARK  116  A    between atoms: _315  and  _318
REMARK  117  A    between atoms: _318  and  _319
REMARK  118  A    between atoms: _323  and  _324
REMARK  119  A    between atoms: _330  and  _331
REMARK  120  A    between atoms: _336  and  _338
REMARK  121  A    between atoms: _338  and  _339
REMARK  122  A    between atoms: _338  and  _341
REMARK  123  A    between atoms: _341  and  _342
REMARK  124  A    between atoms: _345  and  _347
REMARK  125  A    between atoms: _347  and  _348
REMARK  126  A    between atoms: _347  and  _350
REMARK  127  A    between atoms: _350  and  _351
REMARK  128  A    between atoms: _354  and  _356
REMARK  129  A    between atoms: _356  and  _357
REMARK  130  A    between atoms: _356  and  _359
REMARK  131  A    between atoms: _361  and  _363
REMARK  132  A    between atoms: _363  and  _364
REMARK  133  A    between atoms: _363  and  _366
REMARK  134  A    between atoms: _369  and  _371
REMARK  135  A    between atoms: _371  and  _372
REMARK  136  A    between atoms: _371  and  _374
REMARK  137  A    between atoms: _374  and  _375
REMARK  138  A    between atoms: _385  and  _387
REMARK  139  A    between atoms: _387  and  _388
REMARK  140  A    between atoms: _387  and  _390
REMARK  141  A    between atoms: _390  and  _391
REMARK  142  A    between atoms: _396  and  _398
REMARK  143  A    between atoms: _398  and  _399
REMARK  144  A    between atoms: _398  and  _401
REMARK  145  A    between atoms: _401  and  _402
REMARK  146  A    between atoms: _402  and  _403
REMARK  147  A    between atoms: _403  and  _404
REMARK                            x       y       z     vdW  Elec       q    Type
REMARK                         _______ _______ _______ _____ _____    ______ ____
ROOT
ATOM      1  O   HOH     1      -6.684   6.943  10.730  0.00  0.00    +0.000 OA
ENDROOT
TORSDOF 0
REMARK  Name = ../refined-set-2016/4rux/4rux_pocket.pdb
REMARK  147 active torsions:
REMARK  status: ('A' for Active; 'I' for Inactive)
REMARK    1  A    between atoms: _1  and  _3
REMARK    2  A    between atoms: _3  and  _4
REMARK    3  A    between atoms: _3  and  _6
REMARK    4  A    between atoms: _6  and  _7
REMARK    5  A    between atoms: _17  and  _19
REMARK    6  A    between atoms: _19  and  _20
REMARK    7  A    between atoms: _19  and  _22
REMARK    8  A    between atoms: _22  and  _23
REMARK    9  A    between atoms: _28  and  _29
REMARK   10  A    between atoms: _31  and  _33
REMARK   11  A    between atoms: _33  and  _34
REMARK   12  A    between atoms: _33  and  _36
REMARK   13  A    between atoms: _36  and  _37
REMARK   14  A    between atoms: _40  and  _41
REMARK   15  A    between atoms: _46  and  _48
REMARK   16  A    between atoms: _48  and  _49
REMARK   17  A    between atoms: _48  and  _51
REMARK   18  A    between atoms: _51  and  _52
REMARK   19  A    between atoms: _57  and  _59
REMARK   20  A    between atoms: _59  and  _60
REMARK   21  A    between atoms: _63  and  _65
REMARK   22  A    between atoms: _65  and  _66
REMARK   23  A    between atoms: _65  and  _68
REMARK   24  A    between atoms: _68  and  _69
REMARK   25  A    between atoms: _74  and  _76
REMARK   26  A    between atoms: _76  and  _77
REMARK   27  A    between atoms: _76  and  _79
REMARK   28  A    between atoms: _79  and  _80
REMARK   29  A    between atoms: _83  and  _85
REMARK   30  A    between atoms: _85  and  _86
REMARK   31  A    between atoms: _85  and  _88
REMARK   32  A    between atoms: _88  and  _89
REMARK   33  A    between atoms: _89  and  _90
REMARK   34  A    between atoms: _95  and  _97
REMARK   35  A    between atoms: _97  and  _98
REMARK   36  A    between atoms: _97  and  _100
REMARK   37  A    between atoms: _100  and  _101
REMARK   38  A    between atoms: _107  and  _109
REMARK   39  A    between atoms: _120  and  _123
REMARK   40  A    between atoms: _123  and  _124
REMARK   41  A    between atoms: _132  and  _133
REMARK   42  A    between atoms: _141  and  _143
REMARK   43  A    between atoms: _143  and  _144
REMARK   44  A    between atoms: _143  and  _146
REMARK   45  A    between atoms: _146  and  _147
REMARK   46  A    between atoms: _147  and  _148
REMARK   47  A    between atoms: _151  and  _153
REMARK   48  A    between atoms: _153  and  _154
REMARK   49  A    between atoms: _153  and  _156
REMARK   50  A    between atoms: _156  and  _157
REMARK   51  A    between atoms: _162  and  _164
REMARK   52  A    between atoms: _164  and  _165
REMARK   53  A    between atoms: _164  and  _167
REMARK   54  A    between atoms: _167  and  _168
REMARK   55  A    between atoms: _168  and  _169
REMARK   56  A    between atoms: _172  and  _174
REMARK   57  A    between atoms: _174  and  _175
REMARK   58  A    between atoms: _174  and  _177
REMARK   59  A    between atoms: _177  and  _178
REMARK   60  A    between atoms: _181  and  _183
REMARK   61  A    between atoms: _183  and  _184
REMARK   62  A    between atoms: _183  and  _186
REMARK   63  A    between atoms: _186  and  _187
REMARK   64  A    between atoms: _188  and  ZN_413
REMARK   65  A    between atoms: _192  and  _194
REMARK   66  A    between atoms: _194  and  _195
REMARK   67  A    between atoms: _194  and  _197
REMARK   68  A    between atoms: _197  and  _198
REMARK   69  A    between atoms: _201  and  _203
REMARK   70  A    between atoms: _203  and  _204
REMARK   71  A    between atoms: _203  and  _206
REMARK   72  A    between atoms: _209  and  _211
REMARK   73  A    between atoms: _211  and  _212
REMARK   74  A    between atoms: _211  and  _214
REMARK   75  A    between atoms: _214  and  _215
REMARK   76  A    between atoms: _220  and  _222
REMARK   77  A    between atoms: _222  and  _223
REMARK   78  A    between atoms: _222  and  _225
REMARK   79  A    between atoms: _225  and  _226
REMARK   80  A    between atoms: _232  and  _234
REMARK   81  A    between atoms: _234  and  _235
REMARK   82  A    between atoms: _237  and  _239
REMARK   83  A    between atoms: _239  and  _240
REMARK   84  A    between atoms: _239  and  _242
REMARK   85  A    between atoms: _245  and  _247
REMARK   86  A    between atoms: _247  and  _248
REMARK   87  A    between atoms: _247  and  _250
REMARK   88  A    between atoms: _250  and  _251
REMARK   89  A    between atoms: _254  and  _256
REMARK   90  A    between atoms: _256  and  _257
REMARK   91  A    between atoms: _260  and  _262
REMARK   92  A    between atoms: _262  and  _263
REMARK   93  A    between atoms: _262  and  _265
REMARK   94  A    between atoms: _268  and  _270
REMARK   95  A    between atoms: _270  and  _271
REMARK   96  A    between atoms: _270  and  _273
REMARK   97  A    between atoms: _273  and  _274
REMARK   98  A    between atoms: _277  and  _279
REMARK   99  A    between atoms: _279  and  _280
REMARK  100  A    between atoms: _282  and  _284
REMARK  101  A    between atoms: _284  and  _285
REMARK  102  A    between atoms: _287  and  _289
REMARK  103  A    between atoms: _289  and  _290
REMARK  104  A    between atoms: _289  and  _292
REMARK  105  A    between atoms: _292  and  _293
REMARK  106  A    between atoms: _295  and  _297
REMARK  107  A    between atoms: _297  and  _298
REMARK  108  A    between atoms: _297  and  _300
REMARK  109  A    between atoms: _300  and  _301
REMARK  110  A    between atoms: _304  and  _306
REMARK  111  A    between atoms: _306  and  _307
REMARK  112  A    between atoms: _306  and  _309
REMARK  113  A    between atoms: _309  and  _310
REMARK  114  A    between atoms: _313  and  _315
REMARK  115  A    between atoms: _315  and  _316
REMARK  116  A    between atoms: _315  and  _318
REMARK  117  A    between atoms: _318  and  _319
REMARK  118  A    between atoms: _323  and  _324
REMARK  119  A    between atoms: _330  and  _331
REMARK  120  A    between atoms: _336  and  _338
REMARK  121  A    between atoms: _338  and  _339
REMARK  122  A    between atoms: _338  and  _341
REMARK  123  A    between atoms: _341  and  _342
REMARK  124  A    between atoms: _345  and  _347
REMARK  125  A    between atoms: _347  and  _348
REMARK  126  A    between atoms: _347  and  _350
REMARK  127  A    between atoms: _350  and  _351
REMARK  128  A    between atoms: _354  and  _356
REMARK  129  A    between atoms: _356  and  _357
REMARK  130  A    between atoms: _356  and  _359
REMARK  131  A    between atoms: _361  and  _363
REMARK  132  A    between atoms: _363  and  _364
REMARK  133  A    between atoms: _363  and  _366
REMARK  134  A    between atoms: _369  and  _371
REMARK  135  A    between atoms: _371  and  _372
REMARK  136  A    between atoms: _371  and  _374
REMARK  137  A    between atoms: _374  and  _375
REMARK  138  A    between atoms: _385  and  _387
REMARK  139  A    between atoms: _387  and  _388
REMARK  140  A    between atoms: _387  and  _390
REMARK  141  A    between atoms: _390  and  _391
REMARK  142  A    between atoms: _396  and  _398
REMARK  143  A    between atoms: _398  and  _399
REMARK  144  A    between atoms: _398  and  _401
REMARK  145  A    between atoms: _401  and  _402
REMARK  146  A    between atoms: _402  and  _403
REMARK  147  A    between atoms: _403  and  _404
REMARK                            x       y       z     vdW  Elec       q    Type
REMARK                         _______ _______ _______ _____ _____    ______ ____
ROOT
ATOM      1  O   HOH     1       1.756   7.617  12.372  0.00  0.00    +0.000 OA
ENDROOT
TORSDOF 0
REMARK  Name = ../refined-set-2016/4rux/4rux_pocket.pdb
REMARK  147 active torsions:
REMARK  status: ('A' for Active; 'I' for Inactive)
REMARK    1  A    between atoms: _1  and  _3
REMARK    2  A    between atoms: _3  and  _4
REMARK    3  A    between atoms: _3  and  _6
REMARK    4  A    between atoms: _6  and  _7
REMARK    5  A    between atoms: _17  and  _19
REMARK    6  A    between atoms: _19  and  _20
REMARK    7  A    between atoms: _19  and  _22
REMARK    8  A    between atoms: _22  and  _23
REMARK    9  A    between atoms: _28  and  _29
REMARK   10  A    between atoms: _31  and  _33
REMARK   11  A    between atoms: _33  and  _34
REMARK   12  A    between atoms: _33  and  _36
REMARK   13  A    between atoms: _36  and  _37
REMARK   14  A    between atoms: _40  and  _41
REMARK   15  A    between atoms: _46  and  _48
REMARK   16  A    between atoms: _48  and  _49
REMARK   17  A    between atoms: _48  and  _51
REMARK   18  A    between atoms: _51  and  _52
REMARK   19  A    between atoms: _57  and  _59
REMARK   20  A    between atoms: _59  and  _60
REMARK   21  A    between atoms: _63  and  _65
REMARK   22  A    between atoms: _65  and  _66
REMARK   23  A    between atoms: _65  and  _68
REMARK   24  A    between atoms: _68  and  _69
REMARK   25  A    between atoms: _74  and  _76
REMARK   26  A    between atoms: _76  and  _77
REMARK   27  A    between atoms: _76  and  _79
REMARK   28  A    between atoms: _79  and  _80
REMARK   29  A    between atoms: _83  and  _85
REMARK   30  A    between atoms: _85  and  _86
REMARK   31  A    between atoms: _85  and  _88
REMARK   32  A    between atoms: _88  and  _89
REMARK   33  A    between atoms: _89  and  _90
REMARK   34  A    between atoms: _95  and  _97
REMARK   35  A    between atoms: _97  and  _98
REMARK   36  A    between atoms: _97  and  _100
REMARK   37  A    between atoms: _100  and  _101
REMARK   38  A    between atoms: _107  and  _109
REMARK   39  A    between atoms: _120  and  _123
REMARK   40  A    between atoms: _123  and  _124
REMARK   41  A    between atoms: _132  and  _133
REMARK   42  A    between atoms: _141  and  _143
REMARK   43  A    between atoms: _143  and  _144
REMARK   44  A    between atoms: _143  and  _146
REMARK   45  A    between atoms: _146  and  _147
REMARK   46  A    between atoms: _147  and  _148
REMARK   47  A    between atoms: _151  and  _153
REMARK   48  A    between atoms: _153  and  _154
REMARK   49  A    between atoms: _153  and  _156
REMARK   50  A    between atoms: _156  and  _157
REMARK   51  A    between atoms: _162  and  _164
REMARK   52  A    between atoms: _164  and  _165
REMARK   53  A    between atoms: _164  and  _167
REMARK   54  A    between atoms: _167  and  _168
REMARK   55  A    between atoms: _168  and  _169
REMARK   56  A    between atoms: _172  and  _174
REMARK   57  A    between atoms: _174  and  _175
REMARK   58  A    between atoms: _174  and  _177
REMARK   59  A    between atoms: _177  and  _178
REMARK   60  A    between atoms: _181  and  _183
REMARK   61  A    between atoms: _183  and  _184
REMARK   62  A    between atoms: _183  and  _186
REMARK   63  A    between atoms: _186  and  _187
REMARK   64  A    between atoms: _188  and  ZN_413
REMARK   65  A    between atoms: _192  and  _194
REMARK   66  A    between atoms: _194  and  _195
REMARK   67  A    between atoms: _194  and  _197
REMARK   68  A    between atoms: _197  and  _198
REMARK   69  A    between atoms: _201  and  _203
REMARK   70  A    between atoms: _203  and  _204
REMARK   71  A    between atoms: _203  and  _206
REMARK   72  A    between atoms: _209  and  _211
REMARK   73  A    between atoms: _211  and  _212
REMARK   74  A    between atoms: _211  and  _214
REMARK   75  A    between atoms: _214  and  _215
REMARK   76  A    between atoms: _220  and  _222
REMARK   77  A    between atoms: _222  and  _223
REMARK   78  A    between atoms: _222  and  _225
REMARK   79  A    between atoms: _225  and  _226
REMARK   80  A    between atoms: _232  and  _234
REMARK   81  A    between atoms: _234  and  _235
REMARK   82  A    between atoms: _237  and  _239
REMARK   83  A    between atoms: _239  and  _240
REMARK   84  A    between atoms: _239  and  _242
REMARK   85  A    between atoms: _245  and  _247
REMARK   86  A    between atoms: _247  and  _248
REMARK   87  A    between atoms: _247  and  _250
REMARK   88  A    between atoms: _250  and  _251
REMARK   89  A    between atoms: _254  and  _256
REMARK   90  A    between atoms: _256  and  _257
REMARK   91  A    between atoms: _260  and  _262
REMARK   92  A    between atoms: _262  and  _263
REMARK   93  A    between atoms: _262  and  _265
REMARK   94  A    between atoms: _268  and  _270
REMARK   95  A    between atoms: _270  and  _271
REMARK   96  A    between atoms: _270  and  _273
REMARK   97  A    between atoms: _273  and  _274
REMARK   98  A    between atoms: _277  and  _279
REMARK   99  A    between atoms: _279  and  _280
REMARK  100  A    between atoms: _282  and  _284
REMARK  101  A    between atoms: _284  and  _285
REMARK  102  A    between atoms: _287  and  _289
REMARK  103  A    between atoms: _289  and  _290
REMARK  104  A    between atoms: _289  and  _292
REMARK  105  A    between atoms: _292  and  _293
REMARK  106  A    between atoms: _295  and  _297
REMARK  107  A    between atoms: _297  and  _298
REMARK  108  A    between atoms: _297  and  _300
REMARK  109  A    between atoms: _300  and  _301
REMARK  110  A    between atoms: _304  and  _306
REMARK  111  A    between atoms: _306  and  _307
REMARK  112  A    between atoms: _306  and  _309
REMARK  113  A    between atoms: _309  and  _310
REMARK  114  A    between atoms: _313  and  _315
REMARK  115  A    between atoms: _315  and  _316
REMARK  116  A    between atoms: _315  and  _318
REMARK  117  A    between atoms: _318  and  _319
REMARK  118  A    between atoms: _323  and  _324
REMARK  119  A    between atoms: _330  and  _331
REMARK  120  A    between atoms: _336  and  _338
REMARK  121  A    between atoms: _338  and  _339
REMARK  122  A    between atoms: _338  and  _341
REMARK  123  A    between atoms: _341  and  _342
REMARK  124  A    between atoms: _345  and  _347
REMARK  125  A    between atoms: _347  and  _348
REMARK  126  A    between atoms: _347  and  _350
REMARK  127  A    between atoms: _350  and  _351
REMARK  128  A    between atoms: _354  and  _356
REMARK  129  A    between atoms: _356  and  _357
REMARK  130  A    between atoms: _356  and  _359
REMARK  131  A    between atoms: _361  and  _363
REMARK  132  A    between atoms: _363  and  _364
REMARK  133  A    between atoms: _363  and  _366
REMARK  134  A    between atoms: _369  and  _371
REMARK  135  A    between atoms: _371  and  _372
REMARK  136  A    between atoms: _371  and  _374
REMARK  137  A    between atoms: _374  and  _375
REMARK  138  A    between atoms: _385  and  _387
REMARK  139  A    between atoms: _387  and  _388
REMARK  140  A    between atoms: _387  and  _390
REMARK  141  A    between atoms: _390  and  _391
REMARK  142  A    between atoms: _396  and  _398
REMARK  143  A    between atoms: _398  and  _399
REMARK  144  A    between atoms: _398  and  _401
REMARK  145  A    between atoms: _401  and  _402
REMARK  146  A    between atoms: _402  and  _403
REMARK  147  A    between atoms: _403  and  _404
REMARK                            x       y       z     vdW  Elec       q    Type
REMARK                         _______ _______ _______ _____ _____    ______ ____
ROOT
ATOM      1  O   HOH     1      -1.873   5.811   5.584  0.00  0.00    +0.000 OA
ENDROOT
TORSDOF 0
