REMARK  Name = ../refined-set-2016/4m8y/4m8y_pocket.pdb
REMARK  231 active torsions:
REMARK  status: ('A' for Active; 'I' for Inactive)
REMARK    1  A    between atoms: _1  and  _3
REMARK    2  A    between atoms: _3  and  _4
REMARK    3  A    between atoms: _3  and  _6
REMARK    4  A    between atoms: _6  and  _7
REMARK    5  A    between atoms: _7  and  _8
REMARK    6  A    between atoms: _8  and  _9
REMARK    7  A    between atoms: _18  and  _20
REMARK    8  A    between atoms: _20  and  _21
REMARK    9  A    between atoms: _20  and  _23
REMARK   10  A    between atoms: _23  and  _24
REMARK   11  A    between atoms: _27  and  _29
REMARK   12  A    between atoms: _29  and  _30
REMARK   13  A    between atoms: _29  and  _32
REMARK   14  A    between atoms: _32  and  _33
REMARK   15  A    between atoms: _36  and  _38
REMARK   16  A    between atoms: _38  and  _39
REMARK   17  A    between atoms: _38  and  _41
REMARK   18  A    between atoms: _41  and  _42
REMARK   19  A    between atoms: _45  and  _47
REMARK   20  A    between atoms: _47  and  _48
REMARK   21  A    between atoms: _47  and  _50
REMARK   22  A    between atoms: _50  and  _51
REMARK   23  A    between atoms: _54  and  _56
REMARK   24  A    between atoms: _56  and  _57
REMARK   25  A    between atoms: _59  and  _61
REMARK   26  A    between atoms: _61  and  _62
REMARK   27  A    between atoms: _65  and  _67
REMARK   28  A    between atoms: _67  and  _68
REMARK   29  A    between atoms: _67  and  _70
REMARK   30  A    between atoms: _70  and  _71
REMARK   31  A    between atoms: _74  and  _76
REMARK   32  A    between atoms: _76  and  _77
REMARK   33  A    between atoms: _76  and  _79
REMARK   34  A    between atoms: _79  and  _80
REMARK   35  A    between atoms: _83  and  _85
REMARK   36  A    between atoms: _85  and  _86
REMARK   37  A    between atoms: _85  and  _88
REMARK   38  A    between atoms: _88  and  _89
REMARK   39  A    between atoms: _92  and  _94
REMARK   40  A    between atoms: _94  and  _95
REMARK   41  A    between atoms: _94  and  _97
REMARK   42  A    between atoms: _97  and  _98
REMARK   43  A    between atoms: _101  and  _103
REMARK   44  A    between atoms: _103  and  _104
REMARK   45  A    between atoms: _103  and  _106
REMARK   46  A    between atoms: _106  and  _107
REMARK   47  A    between atoms: _107  and  _108
REMARK   48  A    between atoms: _108  and  _109
REMARK   49  A    between atoms: _109  and  _110
REMARK   50  A    between atoms: _114  and  _116
REMARK   51  A    between atoms: _116  and  _117
REMARK   52  A    between atoms: _116  and  _119
REMARK   53  A    between atoms: _122  and  _124
REMARK   54  A    between atoms: _124  and  _125
REMARK   55  A    between atoms: _124  and  _127
REMARK   56  A    between atoms: _130  and  _132
REMARK   57  A    between atoms: _132  and  _133
REMARK   58  A    between atoms: _135  and  _137
REMARK   59  A    between atoms: _137  and  _138
REMARK   60  A    between atoms: _140  and  _142
REMARK   61  A    between atoms: _142  and  _143
REMARK   62  A    between atoms: _142  and  _145
REMARK   63  A    between atoms: _145  and  _146
REMARK   64  A    between atoms: _149  and  _151
REMARK   65  A    between atoms: _151  and  _152
REMARK   66  A    between atoms: _154  and  _156
REMARK   67  A    between atoms: _156  and  _157
REMARK   68  A    between atoms: _159  and  _161
REMARK   69  A    between atoms: _161  and  _162
REMARK   70  A    between atoms: _161  and  _164
REMARK   71  A    between atoms: _164  and  _165
REMARK   72  A    between atoms: _171  and  _173
REMARK   73  A    between atoms: _173  and  _174
REMARK   74  A    between atoms: _173  and  _176
REMARK   75  A    between atoms: _176  and  _177
REMARK   76  A    between atoms: _177  and  _178
REMARK   77  A    between atoms: _180  and  _182
REMARK   78  A    between atoms: _182  and  _183
REMARK   79  A    between atoms: _182  and  _185
REMARK   80  A    between atoms: _185  and  _186
REMARK   81  A    between atoms: _189  and  _191
REMARK   82  A    between atoms: _191  and  _192
REMARK   83  A    between atoms: _191  and  _194
REMARK   84  A    between atoms: _194  and  _195
REMARK   85  A    between atoms: _199  and  _200
REMARK   86  A    between atoms: _205  and  _207
REMARK   87  A    between atoms: _207  and  _208
REMARK   88  A    between atoms: _211  and  _213
REMARK   89  A    between atoms: _213  and  _214
REMARK   90  A    between atoms: _213  and  _216
REMARK   91  A    between atoms: _216  and  _217
REMARK   92  A    between atoms: _222  and  _224
REMARK   93  A    between atoms: _224  and  _225
REMARK   94  A    between atoms: _224  and  _227
REMARK   95  A    between atoms: _227  and  _228
REMARK   96  A    between atoms: _231  and  _233
REMARK   97  A    between atoms: _233  and  _234
REMARK   98  A    between atoms: _233  and  _236
REMARK   99  A    between atoms: _236  and  _237
REMARK  100  A    between atoms: _240  and  _242
REMARK  101  A    between atoms: _242  and  _243
REMARK  102  A    between atoms: _245  and  _247
REMARK  103  A    between atoms: _247  and  _248
REMARK  104  A    between atoms: _247  and  _250
REMARK  105  A    between atoms: _250  and  _251
REMARK  106  A    between atoms: _251  and  _252
REMARK  107  A    between atoms: _252  and  _253
REMARK  108  A    between atoms: _262  and  _264
REMARK  109  A    between atoms: _264  and  _265
REMARK  110  A    between atoms: _264  and  _267
REMARK  111  A    between atoms: _267  and  _268
REMARK  112  A    between atoms: _273  and  _275
REMARK  113  A    between atoms: _275  and  _276
REMARK  114  A    between atoms: _275  and  _278
REMARK  115  A    between atoms: _278  and  _279
REMARK  116  A    between atoms: _279  and  _280
REMARK  117  A    between atoms: _280  and  _281
REMARK  118  A    between atoms: _290  and  _292
REMARK  119  A    between atoms: _292  and  _293
REMARK  120  A    between atoms: _292  and  _295
REMARK  121  A    between atoms: _295  and  _296
REMARK  122  A    between atoms: _302  and  _304
REMARK  123  A    between atoms: _304  and  _305
REMARK  124  A    between atoms: _304  and  _307
REMARK  125  A    between atoms: _307  and  _308
REMARK  126  A    between atoms: _311  and  _313
REMARK  127  A    between atoms: _313  and  _314
REMARK  128  A    between atoms: _313  and  _316
REMARK  129  A    between atoms: _316  and  _317
REMARK  130  A    between atoms: _320  and  _322
REMARK  131  A    between atoms: _322  and  _323
REMARK  132  A    between atoms: _322  and  _325
REMARK  133  A    between atoms: _325  and  _326
REMARK  134  A    between atoms: _329  and  _331
REMARK  135  A    between atoms: _331  and  _332
REMARK  136  A    between atoms: _331  and  _334
REMARK  137  A    between atoms: _334  and  _335
REMARK  138  A    between atoms: _338  and  _340
REMARK  139  A    between atoms: _340  and  _341
REMARK  140  A    between atoms: _343  and  _345
REMARK  141  A    between atoms: _345  and  _346
REMARK  142  A    between atoms: _349  and  _351
REMARK  143  A    between atoms: _351  and  _352
REMARK  144  A    between atoms: _351  and  _354
REMARK  145  A    between atoms: _354  and  _355
REMARK  146  A    between atoms: _358  and  _360
REMARK  147  A    between atoms: _360  and  _361
REMARK  148  A    between atoms: _360  and  _363
REMARK  149  A    between atoms: _363  and  _364
REMARK  150  A    between atoms: _367  and  _369
REMARK  151  A    between atoms: _369  and  _370
REMARK  152  A    between atoms: _369  and  _372
REMARK  153  A    between atoms: _372  and  _373
REMARK  154  A    between atoms: _376  and  _378
REMARK  155  A    between atoms: _378  and  _379
REMARK  156  A    between atoms: _378  and  _381
REMARK  157  A    between atoms: _381  and  _382
REMARK  158  A    between atoms: _385  and  _387
REMARK  159  A    between atoms: _387  and  _388
REMARK  160  A    between atoms: _387  and  _390
REMARK  161  A    between atoms: _390  and  _391
REMARK  162  A    between atoms: _391  and  _392
REMARK  163  A    between atoms: _395  and  _397
REMARK  164  A    between atoms: _397  and  _398
REMARK  165  A    between atoms: _397  and  _400
REMARK  166  A    between atoms: _400  and  _401
REMARK  167  A    between atoms: _401  and  _402
REMARK  168  A    between atoms: _402  and  _403
REMARK  169  A    between atoms: _403  and  _404
REMARK  170  A    between atoms: _408  and  _410
REMARK  171  A    between atoms: _410  and  _411
REMARK  172  A    between atoms: _410  and  _413
REMARK  173  A    between atoms: _416  and  _418
REMARK  174  A    between atoms: _418  and  _419
REMARK  175  A    between atoms: _418  and  _421
REMARK  176  A    between atoms: _424  and  _426
REMARK  177  A    between atoms: _426  and  _427
REMARK  178  A    between atoms: _429  and  _431
REMARK  179  A    between atoms: _431  and  _432
REMARK  180  A    between atoms: _434  and  _436
REMARK  181  A    between atoms: _436  and  _437
REMARK  182  A    between atoms: _436  and  _439
REMARK  183  A    between atoms: _439  and  _440
REMARK  184  A    between atoms: _443  and  _445
REMARK  185  A    between atoms: _445  and  _446
REMARK  186  A    between atoms: _448  and  _450
REMARK  187  A    between atoms: _450  and  _451
REMARK  188  A    between atoms: _453  and  _455
REMARK  189  A    between atoms: _455  and  _456
REMARK  190  A    between atoms: _455  and  _458
REMARK  191  A    between atoms: _458  and  _459
REMARK  192  A    between atoms: _459  and  _460
REMARK  193  A    between atoms: _462  and  _464
REMARK  194  A    between atoms: _464  and  _465
REMARK  195  A    between atoms: _464  and  _467
REMARK  196  A    between atoms: _470  and  _472
REMARK  197  A    between atoms: _472  and  _473
REMARK  198  A    between atoms: _472  and  _475
REMARK  199  A    between atoms: _475  and  _476
REMARK  200  A    between atoms: _480  and  _481
REMARK  201  A    between atoms: _486  and  _488
REMARK  202  A    between atoms: _488  and  _489
REMARK  203  A    between atoms: _488  and  _491
REMARK  204  A    between atoms: _491  and  _492
REMARK  205  A    between atoms: _496  and  _497
REMARK  206  A    between atoms: _502  and  _504
REMARK  207  A    between atoms: _504  and  _505
REMARK  208  A    between atoms: _508  and  _510
REMARK  209  A    between atoms: _510  and  _511
REMARK  210  A    between atoms: _510  and  _513
REMARK  211  A    between atoms: _513  and  _514
REMARK  212  A    between atoms: _519  and  _521
REMARK  213  A    between atoms: _521  and  _522
REMARK  214  A    between atoms: _521  and  _524
REMARK  215  A    between atoms: _524  and  _525
REMARK  216  A    between atoms: _528  and  _530
REMARK  217  A    between atoms: _530  and  _531
REMARK  218  A    between atoms: _530  and  _533
REMARK  219  A    between atoms: _533  and  _534
REMARK  220  A    between atoms: _537  and  _539
REMARK  221  A    between atoms: _539  and  _540
REMARK  222  A    between atoms: _542  and  _544
REMARK  223  A    between atoms: _544  and  _545
REMARK  224  A    between atoms: _544  and  _547
REMARK  225  A    between atoms: _547  and  _548
REMARK  226  A    between atoms: _548  and  _549
REMARK  227  A    between atoms: _549  and  _550
REMARK  228  A    between atoms: _559  and  _561
REMARK  229  A    between atoms: _561  and  _562
REMARK  230  A    between atoms: _561  and  _564
REMARK  231  A    between atoms: _564  and  _565
REMARK                            x       y       z     vdW  Elec       q    Type
REMARK                         _______ _______ _______ _____ _____    ______ ____
ROOT
ATOM      1  NE  ARG A   1      -8.667  62.505  10.937  0.00  0.00    -0.265 N 
ATOM      2  HE  ARG A   1      -8.288  61.792  11.592  0.00  0.00    +0.259 HD
ATOM      3  CZ  ARG A   1      -9.777  63.135  11.314  0.00  0.00    +0.342 C 
ATOM      4  NH2 ARG A   1     -10.322  62.824  12.485  0.00  0.00    -0.292 N 
ATOM      5 HH21 ARG A   1      -9.881  62.100  13.088  0.00  0.00    +0.255 HD
ATOM      6 HH22 ARG A   1     -11.189  63.304  12.799  0.00  0.00    +0.255 HD
ATOM      7  NH1 ARG A   1     -10.352  64.054  10.535  0.00  0.00    -0.292 N 
ATOM      8 HH11 ARG A   1     -11.219  64.534  10.850  0.00  0.00    +0.255 HD
ATOM      9 HH12 ARG A   1      -9.933  64.290   9.613  0.00  0.00    +0.255 HD
ENDROOT
BRANCH   1  10
ATOM     10  CD  ARG A   1      -7.929  62.716   9.695  0.00  0.00    +0.174 C 
BRANCH  10  11
ATOM     11  CG  ARG A   1      -6.598  61.994   9.826  0.00  0.00    +0.045 C 
BRANCH  11  12
ATOM     12  CB  ARG A   1      -5.570  62.396   8.798  0.00  0.00    +0.029 C 
BRANCH  12  13
ATOM     13  CA  ARG A   1      -4.177  61.852   9.104  0.00  0.00    +0.133 C 
BRANCH  13  14
ATOM     14  N   ARG A   1      -3.683  62.356  10.401  0.00  0.00    -0.239 NA
ATOM     15  H   ARG A   1      -4.287  62.979  10.974  0.00  0.00    +0.142 HD
ENDBRANCH  13  14
BRANCH  13  16
ATOM     16  C   ARG A   1      -3.187  62.266   8.014  0.00  0.00    +0.224 C 
ATOM     17  O   ARG A   1      -2.741  63.399   8.021  0.00  0.00    -0.287 OA
ENDBRANCH  13  16
ENDBRANCH  12  13
ENDBRANCH  11  12
ENDBRANCH  10  11
ENDBRANCH   1  10
TORSDOF 6
REMARK  Name = ../refined-set-2016/4m8y/4m8y_pocket.pdb
REMARK  231 active torsions:
REMARK  status: ('A' for Active; 'I' for Inactive)
REMARK    1  A    between atoms: _1  and  _3
REMARK    2  A    between atoms: _3  and  _4
REMARK    3  A    between atoms: _3  and  _6
REMARK    4  A    between atoms: _6  and  _7
REMARK    5  A    between atoms: _7  and  _8
REMARK    6  A    between atoms: _8  and  _9
REMARK    7  A    between atoms: _18  and  _20
REMARK    8  A    between atoms: _20  and  _21
REMARK    9  A    between atoms: _20  and  _23
REMARK   10  A    between atoms: _23  and  _24
REMARK   11  A    between atoms: _27  and  _29
REMARK   12  A    between atoms: _29  and  _30
REMARK   13  A    between atoms: _29  and  _32
REMARK   14  A    between atoms: _32  and  _33
REMARK   15  A    between atoms: _36  and  _38
REMARK   16  A    between atoms: _38  and  _39
REMARK   17  A    between atoms: _38  and  _41
REMARK   18  A    between atoms: _41  and  _42
REMARK   19  A    between atoms: _45  and  _47
REMARK   20  A    between atoms: _47  and  _48
REMARK   21  A    between atoms: _47  and  _50
REMARK   22  A    between atoms: _50  and  _51
REMARK   23  A    between atoms: _54  and  _56
REMARK   24  A    between atoms: _56  and  _57
REMARK   25  A    between atoms: _59  and  _61
REMARK   26  A    between atoms: _61  and  _62
REMARK   27  A    between atoms: _65  and  _67
REMARK   28  A    between atoms: _67  and  _68
REMARK   29  A    between atoms: _67  and  _70
REMARK   30  A    between atoms: _70  and  _71
REMARK   31  A    between atoms: _74  and  _76
REMARK   32  A    between atoms: _76  and  _77
REMARK   33  A    between atoms: _76  and  _79
REMARK   34  A    between atoms: _79  and  _80
REMARK   35  A    between atoms: _83  and  _85
REMARK   36  A    between atoms: _85  and  _86
REMARK   37  A    between atoms: _85  and  _88
REMARK   38  A    between atoms: _88  and  _89
REMARK   39  A    between atoms: _92  and  _94
REMARK   40  A    between atoms: _94  and  _95
REMARK   41  A    between atoms: _94  and  _97
REMARK   42  A    between atoms: _97  and  _98
REMARK   43  A    between atoms: _101  and  _103
REMARK   44  A    between atoms: _103  and  _104
REMARK   45  A    between atoms: _103  and  _106
REMARK   46  A    between atoms: _106  and  _107
REMARK   47  A    between atoms: _107  and  _108
REMARK   48  A    between atoms: _108  and  _109
REMARK   49  A    between atoms: _109  and  _110
REMARK   50  A    between atoms: _114  and  _116
REMARK   51  A    between atoms: _116  and  _117
REMARK   52  A    between atoms: _116  and  _119
REMARK   53  A    between atoms: _122  and  _124
REMARK   54  A    between atoms: _124  and  _125
REMARK   55  A    between atoms: _124  and  _127
REMARK   56  A    between atoms: _130  and  _132
REMARK   57  A    between atoms: _132  and  _133
REMARK   58  A    between atoms: _135  and  _137
REMARK   59  A    between atoms: _137  and  _138
REMARK   60  A    between atoms: _140  and  _142
REMARK   61  A    between atoms: _142  and  _143
REMARK   62  A    between atoms: _142  and  _145
REMARK   63  A    between atoms: _145  and  _146
REMARK   64  A    between atoms: _149  and  _151
REMARK   65  A    between atoms: _151  and  _152
REMARK   66  A    between atoms: _154  and  _156
REMARK   67  A    between atoms: _156  and  _157
REMARK   68  A    between atoms: _159  and  _161
REMARK   69  A    between atoms: _161  and  _162
REMARK   70  A    between atoms: _161  and  _164
REMARK   71  A    between atoms: _164  and  _165
REMARK   72  A    between atoms: _171  and  _173
REMARK   73  A    between atoms: _173  and  _174
REMARK   74  A    between atoms: _173  and  _176
REMARK   75  A    between atoms: _176  and  _177
REMARK   76  A    between atoms: _177  and  _178
REMARK   77  A    between atoms: _180  and  _182
REMARK   78  A    between atoms: _182  and  _183
REMARK   79  A    between atoms: _182  and  _185
REMARK   80  A    between atoms: _185  and  _186
REMARK   81  A    between atoms: _189  and  _191
REMARK   82  A    between atoms: _191  and  _192
REMARK   83  A    between atoms: _191  and  _194
REMARK   84  A    between atoms: _194  and  _195
REMARK   85  A    between atoms: _199  and  _200
REMARK   86  A    between atoms: _205  and  _207
REMARK   87  A    between atoms: _207  and  _208
REMARK   88  A    between atoms: _211  and  _213
REMARK   89  A    between atoms: _213  and  _214
REMARK   90  A    between atoms: _213  and  _216
REMARK   91  A    between atoms: _216  and  _217
REMARK   92  A    between atoms: _222  and  _224
REMARK   93  A    between atoms: _224  and  _225
REMARK   94  A    between atoms: _224  and  _227
REMARK   95  A    between atoms: _227  and  _228
REMARK   96  A    between atoms: _231  and  _233
REMARK   97  A    between atoms: _233  and  _234
REMARK   98  A    between atoms: _233  and  _236
REMARK   99  A    between atoms: _236  and  _237
REMARK  100  A    between atoms: _240  and  _242
REMARK  101  A    between atoms: _242  and  _243
REMARK  102  A    between atoms: _245  and  _247
REMARK  103  A    between atoms: _247  and  _248
REMARK  104  A    between atoms: _247  and  _250
REMARK  105  A    between atoms: _250  and  _251
REMARK  106  A    between atoms: _251  and  _252
REMARK  107  A    between atoms: _252  and  _253
REMARK  108  A    between atoms: _262  and  _264
REMARK  109  A    between atoms: _264  and  _265
REMARK  110  A    between atoms: _264  and  _267
REMARK  111  A    between atoms: _267  and  _268
REMARK  112  A    between atoms: _273  and  _275
REMARK  113  A    between atoms: _275  and  _276
REMARK  114  A    between atoms: _275  and  _278
REMARK  115  A    between atoms: _278  and  _279
REMARK  116  A    between atoms: _279  and  _280
REMARK  117  A    between atoms: _280  and  _281
REMARK  118  A    between atoms: _290  and  _292
REMARK  119  A    between atoms: _292  and  _293
REMARK  120  A    between atoms: _292  and  _295
REMARK  121  A    between atoms: _295  and  _296
REMARK  122  A    between atoms: _302  and  _304
REMARK  123  A    between atoms: _304  and  _305
REMARK  124  A    between atoms: _304  and  _307
REMARK  125  A    between atoms: _307  and  _308
REMARK  126  A    between atoms: _311  and  _313
REMARK  127  A    between atoms: _313  and  _314
REMARK  128  A    between atoms: _313  and  _316
REMARK  129  A    between atoms: _316  and  _317
REMARK  130  A    between atoms: _320  and  _322
REMARK  131  A    between atoms: _322  and  _323
REMARK  132  A    between atoms: _322  and  _325
REMARK  133  A    between atoms: _325  and  _326
REMARK  134  A    between atoms: _329  and  _331
REMARK  135  A    between atoms: _331  and  _332
REMARK  136  A    between atoms: _331  and  _334
REMARK  137  A    between atoms: _334  and  _335
REMARK  138  A    between atoms: _338  and  _340
REMARK  139  A    between atoms: _340  and  _341
REMARK  140  A    between atoms: _343  and  _345
REMARK  141  A    between atoms: _345  and  _346
REMARK  142  A    between atoms: _349  and  _351
REMARK  143  A    between atoms: _351  and  _352
REMARK  144  A    between atoms: _351  and  _354
REMARK  145  A    between atoms: _354  and  _355
REMARK  146  A    between atoms: _358  and  _360
REMARK  147  A    between atoms: _360  and  _361
REMARK  148  A    between atoms: _360  and  _363
REMARK  149  A    between atoms: _363  and  _364
REMARK  150  A    between atoms: _367  and  _369
REMARK  151  A    between atoms: _369  and  _370
REMARK  152  A    between atoms: _369  and  _372
REMARK  153  A    between atoms: _372  and  _373
REMARK  154  A    between atoms: _376  and  _378
REMARK  155  A    between atoms: _378  and  _379
REMARK  156  A    between atoms: _378  and  _381
REMARK  157  A    between atoms: _381  and  _382
REMARK  158  A    between atoms: _385  and  _387
REMARK  159  A    between atoms: _387  and  _388
REMARK  160  A    between atoms: _387  and  _390
REMARK  161  A    between atoms: _390  and  _391
REMARK  162  A    between atoms: _391  and  _392
REMARK  163  A    between atoms: _395  and  _397
REMARK  164  A    between atoms: _397  and  _398
REMARK  165  A    between atoms: _397  and  _400
REMARK  166  A    between atoms: _400  and  _401
REMARK  167  A    between atoms: _401  and  _402
REMARK  168  A    between atoms: _402  and  _403
REMARK  169  A    between atoms: _403  and  _404
REMARK  170  A    between atoms: _408  and  _410
REMARK  171  A    between atoms: _410  and  _411
REMARK  172  A    between atoms: _410  and  _413
REMARK  173  A    between atoms: _416  and  _418
REMARK  174  A    between atoms: _418  and  _419
REMARK  175  A    between atoms: _418  and  _421
REMARK  176  A    between atoms: _424  and  _426
REMARK  177  A    between atoms: _426  and  _427
REMARK  178  A    between atoms: _429  and  _431
REMARK  179  A    between atoms: _431  and  _432
REMARK  180  A    between atoms: _434  and  _436
REMARK  181  A    between atoms: _436  and  _437
REMARK  182  A    between atoms: _436  and  _439
REMARK  183  A    between atoms: _439  and  _440
REMARK  184  A    between atoms: _443  and  _445
REMARK  185  A    between atoms: _445  and  _446
REMARK  186  A    between atoms: _448  and  _450
REMARK  187  A    between atoms: _450  and  _451
REMARK  188  A    between atoms: _453  and  _455
REMARK  189  A    between atoms: _455  and  _456
REMARK  190  A    between atoms: _455  and  _458
REMARK  191  A    between atoms: _458  and  _459
REMARK  192  A    between atoms: _459  and  _460
REMARK  193  A    between atoms: _462  and  _464
REMARK  194  A    between atoms: _464  and  _465
REMARK  195  A    between atoms: _464  and  _467
REMARK  196  A    between atoms: _470  and  _472
REMARK  197  A    between atoms: _472  and  _473
REMARK  198  A    between atoms: _472  and  _475
REMARK  199  A    between atoms: _475  and  _476
REMARK  200  A    between atoms: _480  and  _481
REMARK  201  A    between atoms: _486  and  _488
REMARK  202  A    between atoms: _488  and  _489
REMARK  203  A    between atoms: _488  and  _491
REMARK  204  A    between atoms: _491  and  _492
REMARK  205  A    between atoms: _496  and  _497
REMARK  206  A    between atoms: _502  and  _504
REMARK  207  A    between atoms: _504  and  _505
REMARK  208  A    between atoms: _508  and  _510
REMARK  209  A    between atoms: _510  and  _511
REMARK  210  A    between atoms: _510  and  _513
REMARK  211  A    between atoms: _513  and  _514
REMARK  212  A    between atoms: _519  and  _521
REMARK  213  A    between atoms: _521  and  _522
REMARK  214  A    between atoms: _521  and  _524
REMARK  215  A    between atoms: _524  and  _525
REMARK  216  A    between atoms: _528  and  _530
REMARK  217  A    between atoms: _530  and  _531
REMARK  218  A    between atoms: _530  and  _533
REMARK  219  A    between atoms: _533  and  _534
REMARK  220  A    between atoms: _537  and  _539
REMARK  221  A    between atoms: _539  and  _540
REMARK  222  A    between atoms: _542  and  _544
REMARK  223  A    between atoms: _544  and  _545
REMARK  224  A    between atoms: _544  and  _547
REMARK  225  A    between atoms: _547  and  _548
REMARK  226  A    between atoms: _548  and  _549
REMARK  227  A    between atoms: _549  and  _550
REMARK  228  A    between atoms: _559  and  _561
REMARK  229  A    between atoms: _561  and  _562
REMARK  230  A    between atoms: _561  and  _564
REMARK  231  A    between atoms: _564  and  _565
REMARK                            x       y       z     vdW  Elec       q    Type
REMARK                         _______ _______ _______ _____ _____    ______ ____
ROOT
ATOM      1  C   GLY A   5      -8.100  51.138   1.271  0.00  0.00    +0.243 C 
ATOM      2  O   GLY A   5      -9.175  50.524   1.270  0.00  0.00    -0.273 OA
ATOM      3  N   ALA A   6      -7.752  52.006   0.318  0.00  0.00    -0.297 N 
ATOM      4  H   ALA A   6      -6.811  52.445   0.372  0.00  0.00    +0.150 HD
ENDROOT
BRANCH   3   5
ATOM      5  CA  ALA A   6      -8.624  52.372  -0.797  0.00  0.00    +0.149 C 
ATOM      6  CB  ALA A   6      -8.793  53.879  -0.846  0.00  0.00    +0.031 C 
BRANCH   5   7
ATOM      7  C   ALA A   6      -8.036  51.872  -2.110  0.00  0.00    +0.241 C 
ATOM      8  O   ALA A   6      -6.872  52.150  -2.411  0.00  0.00    -0.273 OA
ATOM      9  N   ASP A   7      -8.820  51.112  -2.880  0.00  0.00    -0.297 N 
ATOM     10  H   ASP A   7      -9.774  50.865  -2.547  0.00  0.00    +0.150 HD
BRANCH   9  11
ATOM     11  CA  ASP A   7      -8.370  50.621  -4.175  0.00  0.00    +0.160 C 
BRANCH  11  12
ATOM     12  C   ASP A   7      -8.344  51.808  -5.122  0.00  0.00    +0.241 C 
ATOM     13  N   ASP A   8      -9.358  52.653  -4.970  0.00  0.00    -0.297 N 
ATOM     14  H   ASP A   8      -9.952  52.557  -4.122  0.00  0.00    +0.150 HD
ATOM     15  O   ASP A   7      -7.442  51.946  -5.955  0.00  0.00    -0.273 OA
BRANCH  13  16
ATOM     16  CA  ASP A   8      -9.683  53.693  -5.909  0.00  0.00    +0.160 C 
BRANCH  16  17
ATOM     17  C   ASP A   8      -9.592  55.070  -5.264  0.00  0.00    +0.241 C 
ATOM     18  O   ASP A   8      -9.762  55.223  -4.059  0.00  0.00    -0.273 OA
ATOM     19  N   THR A   9      -9.327  56.061  -6.106  0.00  0.00    -0.295 N 
ATOM     20  H   THR A   9      -9.173  55.820  -7.106  0.00  0.00    +0.150 HD
BRANCH  19  21
ATOM     21  CA  THR A   9      -9.238  57.463  -5.724  0.00  0.00    +0.176 C 
BRANCH  21  22
ATOM     22  C   THR A   9     -10.606  58.066  -5.883  0.00  0.00    +0.243 C 
ATOM     23  N   ILE A  10     -11.097  58.739  -4.840  0.00  0.00    -0.298 N 
ATOM     24  H   ILE A  10     -10.523  58.795  -3.975  0.00  0.00    +0.150 HD
ATOM     25  O   THR A   9     -11.203  57.918  -6.939  0.00  0.00    -0.273 OA
BRANCH  23  26
ATOM     26  CA  ILE A  10     -12.418  59.410  -4.852  0.00  0.00    +0.137 C 
BRANCH  26  27
ATOM     27  C   ILE A  10     -12.333  60.854  -4.353  0.00  0.00    +0.227 C 
ATOM     28  O   ILE A  10     -11.658  61.119  -3.367  0.00  0.00    -0.286 OA
ENDBRANCH  26  27
BRANCH  26  29
ATOM     29  CB  ILE A  10     -13.463  58.695  -3.966  0.00  0.00    +0.026 C 
ATOM     30  CG2 ILE A  10     -14.847  59.307  -4.197  0.00  0.00    +0.002 C 
BRANCH  29  31
ATOM     31  CG1 ILE A  10     -13.450  57.185  -4.223  0.00  0.00    +0.002 C 
ATOM     32  CD1 ILE A  10     -14.303  56.368  -3.281  0.00  0.00    +0.000 C 
ENDBRANCH  29  31
ENDBRANCH  26  29
ENDBRANCH  23  26
ENDBRANCH  21  22
BRANCH  21  33
ATOM     33  CB  THR A   9      -8.224  58.181  -6.658  0.00  0.00    +0.137 C 
ATOM     34  CG2 THR A   9      -8.244  59.691  -6.489  0.00  0.00    +0.034 C 
BRANCH  33  35
ATOM     35  OG1 THR A   9      -6.913  57.684  -6.375  0.00  0.00    -0.382 OA
ATOM     36  HG1 THR A   9      -6.889  56.708  -6.538  0.00  0.00    +0.210 HD
ENDBRANCH  33  35
ENDBRANCH  21  33
ENDBRANCH  19  21
ENDBRANCH  16  17
BRANCH  16  37
ATOM     37  CB  ASP A   8     -11.104  53.479  -6.462  0.00  0.00    +0.143 C 
BRANCH  37  38
ATOM     38  CG  ASP A   8     -11.249  52.177  -7.234  0.00  0.00    +0.367 C 
ATOM     39  OD2 ASP A   8     -12.401  51.718  -7.380  0.00  0.00    -0.246 OA
ATOM     40  OD1 ASP A   8     -10.234  51.611  -7.700  0.00  0.00    -0.246 OA
ENDBRANCH  37  38
ENDBRANCH  16  37
ENDBRANCH  13  16
ENDBRANCH  11  12
BRANCH  11  41
ATOM     41  CB  ASP A   7      -9.337  49.598  -4.788  0.00  0.00    +0.143 C 
BRANCH  41  42
ATOM     42  CG  ASP A   7      -9.605  48.399  -3.911  0.00  0.00    +0.367 C 
ATOM     43  OD2 ASP A   7      -8.746  47.972  -3.104  0.00  0.00    -0.246 OA
ATOM     44  OD1 ASP A   7     -10.715  47.859  -4.066  0.00  0.00    -0.246 OA
ENDBRANCH  41  42
ENDBRANCH  11  41
ENDBRANCH   9  11
ENDBRANCH   5   7
ENDBRANCH   3   5
BRANCH   1  45
ATOM     45  CA  GLY A   5      -7.089  50.905   2.383  0.00  0.00    +0.176 C 
BRANCH  45  47
ATOM     46  C   THR A   4      -4.826  51.454   1.611  0.00  0.00    +0.243 C 
ATOM     47  N   GLY A   5      -5.917  51.781   2.307  0.00  0.00    -0.295 N 
ATOM     48  H   GLY A   5      -5.936  52.689   2.813  0.00  0.00    +0.150 HD
ATOM     49  O   THR A   4      -4.720  50.397   0.996  0.00  0.00    -0.273 OA
BRANCH  46  50
ATOM     50  CA  THR A   4      -3.675  52.475   1.581  0.00  0.00    +0.176 C 
BRANCH  50  52
ATOM     51  C   ASP A   3      -4.949  54.569   1.200  0.00  0.00    +0.241 C 
ATOM     52  N   THR A   4      -4.107  53.840   1.944  0.00  0.00    -0.295 N 
ATOM     53  H   THR A   4      -3.738  54.257   2.823  0.00  0.00    +0.150 HD
ATOM     54  O   ASP A   3      -5.494  54.159   0.167  0.00  0.00    -0.273 OA
BRANCH  51  55
ATOM     55  CA  ASP A   3      -5.238  55.971   1.732  0.00  0.00    +0.160 C 
BRANCH  55  58
ATOM     56  C   LEU A   2      -3.656  57.779   1.928  0.00  0.00    +0.241 C 
ATOM     57  O   LEU A   2      -3.487  57.549   3.120  0.00  0.00    -0.273 OA
ATOM     58  N   ASP A   3      -4.366  56.979   1.145  0.00  0.00    -0.297 N 
ATOM     59  H   ASP A   3      -4.300  57.071   0.111  0.00  0.00    +0.150 HD
BRANCH  56  60
ATOM     60  CA  LEU A   2      -3.104  59.042   1.296  0.00  0.00    +0.149 C 
BRANCH  60  62
ATOM     61  C   LEU A   1      -5.114  60.417   1.467  0.00  0.00    +0.238 C 
ATOM     62  N   LEU A   2      -3.865  60.168   1.855  0.00  0.00    -0.297 N 
ATOM     63  H   LEU A   2      -3.420  60.782   2.567  0.00  0.00    +0.150 HD
ATOM     64  O   LEU A   1      -5.612  59.865   0.499  0.00  0.00    -0.274 OA
BRANCH  61  65
ATOM     65  CA  LEU A   1      -5.910  61.474   2.253  0.00  0.00    +0.145 C 
BRANCH  65  66
ATOM     66  N   LEU A   1      -6.451  62.468   1.353  0.00  0.00    -0.238 NA
ATOM     67  H   LEU A   1      -7.457  62.417   1.096  0.00  0.00    +0.142 HD
ENDBRANCH  65  66
BRANCH  65  68
ATOM     68  CB  LEU A   1      -7.087  60.859   3.024  0.00  0.00    +0.026 C 
BRANCH  68  69
ATOM     69  CG  LEU A   1      -6.970  60.218   4.403  0.00  0.00    +0.002 C 
ATOM     70  CD2 LEU A   1      -6.240  61.124   5.400  0.00  0.00    +0.000 C 
ATOM     71  CD1 LEU A   1      -8.366  59.881   4.894  0.00  0.00    +0.000 C 
ENDBRANCH  68  69
ENDBRANCH  65  68
ENDBRANCH  61  65
ENDBRANCH  60  62
BRANCH  60  72
ATOM     72  CB  LEU A   2      -1.598  59.177   1.582  0.00  0.00    +0.029 C 
BRANCH  72  73
ATOM     73  CG  LEU A   2      -0.849  60.369   0.982  0.00  0.00    +0.002 C 
ATOM     74  CD2 LEU A   2       0.630  60.308   1.360  0.00  0.00    +0.000 C 
ATOM     75  CD1 LEU A   2      -1.039  60.458  -0.537  0.00  0.00    +0.000 C 
ENDBRANCH  72  73
ENDBRANCH  60  72
ENDBRANCH  56  60
ENDBRANCH  55  58
BRANCH  55  76
ATOM     76  CB  ASP A   3      -6.706  56.381   1.534  0.00  0.00    +0.143 C 
BRANCH  76  77
ATOM     77  CG  ASP A   3      -7.685  55.453   2.240  0.00  0.00    +0.367 C 
ATOM     78  OD2 ASP A   3      -7.255  54.429   2.809  0.00  0.00    -0.246 OA
ATOM     79  OD1 ASP A   3      -8.894  55.746   2.220  0.00  0.00    -0.246 OA
ENDBRANCH  76  77
ENDBRANCH  55  76
ENDBRANCH  51  55
ENDBRANCH  50  52
BRANCH  50  80
ATOM     80  CB  THR A   4      -2.523  51.967   2.481  0.00  0.00    +0.137 C 
ATOM     81  CG2 THR A   4      -1.226  52.747   2.229  0.00  0.00    +0.034 C 
BRANCH  80  82
ATOM     82  OG1 THR A   4      -2.892  52.097   3.862  0.00  0.00    -0.382 OA
ATOM     83  HG1 THR A   4      -3.706  51.561   4.037  0.00  0.00    +0.210 HD
ENDBRANCH  80  82
ENDBRANCH  50  80
ENDBRANCH  46  50
ENDBRANCH  45  47
ENDBRANCH   1  45
TORSDOF 36
REMARK  Name = ../refined-set-2016/4m8y/4m8y_pocket.pdb
REMARK  231 active torsions:
REMARK  status: ('A' for Active; 'I' for Inactive)
REMARK    1  A    between atoms: _1  and  _3
REMARK    2  A    between atoms: _3  and  _4
REMARK    3  A    between atoms: _3  and  _6
REMARK    4  A    between atoms: _6  and  _7
REMARK    5  A    between atoms: _7  and  _8
REMARK    6  A    between atoms: _8  and  _9
REMARK    7  A    between atoms: _18  and  _20
REMARK    8  A    between atoms: _20  and  _21
REMARK    9  A    between atoms: _20  and  _23
REMARK   10  A    between atoms: _23  and  _24
REMARK   11  A    between atoms: _27  and  _29
REMARK   12  A    between atoms: _29  and  _30
REMARK   13  A    between atoms: _29  and  _32
REMARK   14  A    between atoms: _32  and  _33
REMARK   15  A    between atoms: _36  and  _38
REMARK   16  A    between atoms: _38  and  _39
REMARK   17  A    between atoms: _38  and  _41
REMARK   18  A    between atoms: _41  and  _42
REMARK   19  A    between atoms: _45  and  _47
REMARK   20  A    between atoms: _47  and  _48
REMARK   21  A    between atoms: _47  and  _50
REMARK   22  A    between atoms: _50  and  _51
REMARK   23  A    between atoms: _54  and  _56
REMARK   24  A    between atoms: _56  and  _57
REMARK   25  A    between atoms: _59  and  _61
REMARK   26  A    between atoms: _61  and  _62
REMARK   27  A    between atoms: _65  and  _67
REMARK   28  A    between atoms: _67  and  _68
REMARK   29  A    between atoms: _67  and  _70
REMARK   30  A    between atoms: _70  and  _71
REMARK   31  A    between atoms: _74  and  _76
REMARK   32  A    between atoms: _76  and  _77
REMARK   33  A    between atoms: _76  and  _79
REMARK   34  A    between atoms: _79  and  _80
REMARK   35  A    between atoms: _83  and  _85
REMARK   36  A    between atoms: _85  and  _86
REMARK   37  A    between atoms: _85  and  _88
REMARK   38  A    between atoms: _88  and  _89
REMARK   39  A    between atoms: _92  and  _94
REMARK   40  A    between atoms: _94  and  _95
REMARK   41  A    between atoms: _94  and  _97
REMARK   42  A    between atoms: _97  and  _98
REMARK   43  A    between atoms: _101  and  _103
REMARK   44  A    between atoms: _103  and  _104
REMARK   45  A    between atoms: _103  and  _106
REMARK   46  A    between atoms: _106  and  _107
REMARK   47  A    between atoms: _107  and  _108
REMARK   48  A    between atoms: _108  and  _109
REMARK   49  A    between atoms: _109  and  _110
REMARK   50  A    between atoms: _114  and  _116
REMARK   51  A    between atoms: _116  and  _117
REMARK   52  A    between atoms: _116  and  _119
REMARK   53  A    between atoms: _122  and  _124
REMARK   54  A    between atoms: _124  and  _125
REMARK   55  A    between atoms: _124  and  _127
REMARK   56  A    between atoms: _130  and  _132
REMARK   57  A    between atoms: _132  and  _133
REMARK   58  A    between atoms: _135  and  _137
REMARK   59  A    between atoms: _137  and  _138
REMARK   60  A    between atoms: _140  and  _142
REMARK   61  A    between atoms: _142  and  _143
REMARK   62  A    between atoms: _142  and  _145
REMARK   63  A    between atoms: _145  and  _146
REMARK   64  A    between atoms: _149  and  _151
REMARK   65  A    between atoms: _151  and  _152
REMARK   66  A    between atoms: _154  and  _156
REMARK   67  A    between atoms: _156  and  _157
REMARK   68  A    between atoms: _159  and  _161
REMARK   69  A    between atoms: _161  and  _162
REMARK   70  A    between atoms: _161  and  _164
REMARK   71  A    between atoms: _164  and  _165
REMARK   72  A    between atoms: _171  and  _173
REMARK   73  A    between atoms: _173  and  _174
REMARK   74  A    between atoms: _173  and  _176
REMARK   75  A    between atoms: _176  and  _177
REMARK   76  A    between atoms: _177  and  _178
REMARK   77  A    between atoms: _180  and  _182
REMARK   78  A    between atoms: _182  and  _183
REMARK   79  A    between atoms: _182  and  _185
REMARK   80  A    between atoms: _185  and  _186
REMARK   81  A    between atoms: _189  and  _191
REMARK   82  A    between atoms: _191  and  _192
REMARK   83  A    between atoms: _191  and  _194
REMARK   84  A    between atoms: _194  and  _195
REMARK   85  A    between atoms: _199  and  _200
REMARK   86  A    between atoms: _205  and  _207
REMARK   87  A    between atoms: _207  and  _208
REMARK   88  A    between atoms: _211  and  _213
REMARK   89  A    between atoms: _213  and  _214
REMARK   90  A    between atoms: _213  and  _216
REMARK   91  A    between atoms: _216  and  _217
REMARK   92  A    between atoms: _222  and  _224
REMARK   93  A    between atoms: _224  and  _225
REMARK   94  A    between atoms: _224  and  _227
REMARK   95  A    between atoms: _227  and  _228
REMARK   96  A    between atoms: _231  and  _233
REMARK   97  A    between atoms: _233  and  _234
REMARK   98  A    between atoms: _233  and  _236
REMARK   99  A    between atoms: _236  and  _237
REMARK  100  A    between atoms: _240  and  _242
REMARK  101  A    between atoms: _242  and  _243
REMARK  102  A    between atoms: _245  and  _247
REMARK  103  A    between atoms: _247  and  _248
REMARK  104  A    between atoms: _247  and  _250
REMARK  105  A    between atoms: _250  and  _251
REMARK  106  A    between atoms: _251  and  _252
REMARK  107  A    between atoms: _252  and  _253
REMARK  108  A    between atoms: _262  and  _264
REMARK  109  A    between atoms: _264  and  _265
REMARK  110  A    between atoms: _264  and  _267
REMARK  111  A    between atoms: _267  and  _268
REMARK  112  A    between atoms: _273  and  _275
REMARK  113  A    between atoms: _275  and  _276
REMARK  114  A    between atoms: _275  and  _278
REMARK  115  A    between atoms: _278  and  _279
REMARK  116  A    between atoms: _279  and  _280
REMARK  117  A    between atoms: _280  and  _281
REMARK  118  A    between atoms: _290  and  _292
REMARK  119  A    between atoms: _292  and  _293
REMARK  120  A    between atoms: _292  and  _295
REMARK  121  A    between atoms: _295  and  _296
REMARK  122  A    between atoms: _302  and  _304
REMARK  123  A    between atoms: _304  and  _305
REMARK  124  A    between atoms: _304  and  _307
REMARK  125  A    between atoms: _307  and  _308
REMARK  126  A    between atoms: _311  and  _313
REMARK  127  A    between atoms: _313  and  _314
REMARK  128  A    between atoms: _313  and  _316
REMARK  129  A    between atoms: _316  and  _317
REMARK  130  A    between atoms: _320  and  _322
REMARK  131  A    between atoms: _322  and  _323
REMARK  132  A    between atoms: _322  and  _325
REMARK  133  A    between atoms: _325  and  _326
REMARK  134  A    between atoms: _329  and  _331
REMARK  135  A    between atoms: _331  and  _332
REMARK  136  A    between atoms: _331  and  _334
REMARK  137  A    between atoms: _334  and  _335
REMARK  138  A    between atoms: _338  and  _340
REMARK  139  A    between atoms: _340  and  _341
REMARK  140  A    between atoms: _343  and  _345
REMARK  141  A    between atoms: _345  and  _346
REMARK  142  A    between atoms: _349  and  _351
REMARK  143  A    between atoms: _351  and  _352
REMARK  144  A    between atoms: _351  and  _354
REMARK  145  A    between atoms: _354  and  _355
REMARK  146  A    between atoms: _358  and  _360
REMARK  147  A    between atoms: _360  and  _361
REMARK  148  A    between atoms: _360  and  _363
REMARK  149  A    between atoms: _363  and  _364
REMARK  150  A    between atoms: _367  and  _369
REMARK  151  A    between atoms: _369  and  _370
REMARK  152  A    between atoms: _369  and  _372
REMARK  153  A    between atoms: _372  and  _373
REMARK  154  A    between atoms: _376  and  _378
REMARK  155  A    between atoms: _378  and  _379
REMARK  156  A    between atoms: _378  and  _381
REMARK  157  A    between atoms: _381  and  _382
REMARK  158  A    between atoms: _385  and  _387
REMARK  159  A    between atoms: _387  and  _388
REMARK  160  A    between atoms: _387  and  _390
REMARK  161  A    between atoms: _390  and  _391
REMARK  162  A    between atoms: _391  and  _392
REMARK  163  A    between atoms: _395  and  _397
REMARK  164  A    between atoms: _397  and  _398
REMARK  165  A    between atoms: _397  and  _400
REMARK  166  A    between atoms: _400  and  _401
REMARK  167  A    between atoms: _401  and  _402
REMARK  168  A    between atoms: _402  and  _403
REMARK  169  A    between atoms: _403  and  _404
REMARK  170  A    between atoms: _408  and  _410
REMARK  171  A    between atoms: _410  and  _411
REMARK  172  A    between atoms: _410  and  _413
REMARK  173  A    between atoms: _416  and  _418
REMARK  174  A    between atoms: _418  and  _419
REMARK  175  A    between atoms: _418  and  _421
REMARK  176  A    between atoms: _424  and  _426
REMARK  177  A    between atoms: _426  and  _427
REMARK  178  A    between atoms: _429  and  _431
REMARK  179  A    between atoms: _431  and  _432
REMARK  180  A    between atoms: _434  and  _436
REMARK  181  A    between atoms: _436  and  _437
REMARK  182  A    between atoms: _436  and  _439
REMARK  183  A    between atoms: _439  and  _440
REMARK  184  A    between atoms: _443  and  _445
REMARK  185  A    between atoms: _445  and  _446
REMARK  186  A    between atoms: _448  and  _450
REMARK  187  A    between atoms: _450  and  _451
REMARK  188  A    between atoms: _453  and  _455
REMARK  189  A    between atoms: _455  and  _456
REMARK  190  A    between atoms: _455  and  _458
REMARK  191  A    between atoms: _458  and  _459
REMARK  192  A    between atoms: _459  and  _460
REMARK  193  A    between atoms: _462  and  _464
REMARK  194  A    between atoms: _464  and  _465
REMARK  195  A    between atoms: _464  and  _467
REMARK  196  A    between atoms: _470  and  _472
REMARK  197  A    between atoms: _472  and  _473
REMARK  198  A    between atoms: _472  and  _475
REMARK  199  A    between atoms: _475  and  _476
REMARK  200  A    between atoms: _480  and  _481
REMARK  201  A    between atoms: _486  and  _488
REMARK  202  A    between atoms: _488  and  _489
REMARK  203  A    between atoms: _488  and  _491
REMARK  204  A    between atoms: _491  and  _492
REMARK  205  A    between atoms: _496  and  _497
REMARK  206  A    between atoms: _502  and  _504
REMARK  207  A    between atoms: _504  and  _505
REMARK  208  A    between atoms: _508  and  _510
REMARK  209  A    between atoms: _510  and  _511
REMARK  210  A    between atoms: _510  and  _513
REMARK  211  A    between atoms: _513  and  _514
REMARK  212  A    between atoms: _519  and  _521
REMARK  213  A    between atoms: _521  and  _522
REMARK  214  A    between atoms: _521  and  _524
REMARK  215  A    between atoms: _524  and  _525
REMARK  216  A    between atoms: _528  and  _530
REMARK  217  A    between atoms: _530  and  _531
REMARK  218  A    between atoms: _530  and  _533
REMARK  219  A    between atoms: _533  and  _534
REMARK  220  A    between atoms: _537  and  _539
REMARK  221  A    between atoms: _539  and  _540
REMARK  222  A    between atoms: _542  and  _544
REMARK  223  A    between atoms: _544  and  _545
REMARK  224  A    between atoms: _544  and  _547
REMARK  225  A    between atoms: _547  and  _548
REMARK  226  A    between atoms: _548  and  _549
REMARK  227  A    between atoms: _549  and  _550
REMARK  228  A    between atoms: _559  and  _561
REMARK  229  A    between atoms: _561  and  _562
REMARK  230  A    between atoms: _561  and  _564
REMARK  231  A    between atoms: _564  and  _565
REMARK                            x       y       z     vdW  Elec       q    Type
REMARK                         _______ _______ _______ _____ _____    ______ ____
ROOT
ATOM      1  C   GLY A   5     -18.065  50.623   3.454  0.00  0.00    +0.243 C 
ATOM      2  N   ILE A   6     -17.586  51.284   4.504  0.00  0.00    -0.297 N 
ATOM      3  H   ILE A   6     -16.744  51.882   4.378  0.00  0.00    +0.150 HD
ATOM      4  O   GLY A   5     -19.014  49.846   3.513  0.00  0.00    -0.273 OA
ENDROOT
BRANCH   2   5
ATOM      5  CA  ILE A   6     -18.195  51.202   5.821  0.00  0.00    +0.149 C 
BRANCH   5   6
ATOM      6  C   ILE A   6     -19.467  52.041   5.783  0.00  0.00    +0.241 C 
ATOM      7  N   GLY A   7     -20.607  51.429   6.037  0.00  0.00    -0.295 N 
ATOM      8  H   GLY A   7     -20.609  50.430   6.326  0.00  0.00    +0.150 HD
ATOM      9  O   ILE A   6     -19.419  53.232   5.499  0.00  0.00    -0.273 OA
BRANCH   7  10
ATOM     10  CA  GLY A   7     -21.873  52.162   5.911  0.00  0.00    +0.176 C 
BRANCH  10  11
ATOM     11  C   GLY A   7     -22.660  51.865   4.642  0.00  0.00    +0.243 C 
ATOM     12  O   GLY A   7     -23.802  52.307   4.485  0.00  0.00    -0.273 OA
ATOM     13  N   GLY A   8     -22.065  51.123   3.719  0.00  0.00    -0.295 N 
ATOM     14  H   GLY A   8     -21.073  50.832   3.834  0.00  0.00    +0.150 HD
BRANCH  13  15
ATOM     15  CA  GLY A   8     -22.820  50.723   2.544  0.00  0.00    +0.176 C 
BRANCH  15  16
ATOM     16  C   GLY A   8     -22.191  51.137   1.234  0.00  0.00    +0.243 C 
ATOM     17  O   GLY A   8     -20.979  51.027   1.048  0.00  0.00    -0.273 OA
ATOM     18  N   PHE A   9     -23.020  51.606   0.317  0.00  0.00    -0.297 N 
ATOM     19  H   PHE A   9     -24.026  51.722   0.555  0.00  0.00    +0.150 HD
BRANCH  18  20
ATOM     20  CA  PHE A   9     -22.561  51.964  -1.018  0.00  0.00    +0.153 C 
BRANCH  20  21
ATOM     21  C   PHE A   9     -22.849  53.419  -1.354  0.00  0.00    +0.241 C 
ATOM     22  O   PHE A   9     -23.738  54.040  -0.755  0.00  0.00    -0.273 OA
ATOM     23  N   MET A  10     -22.104  53.968  -2.308  0.00  0.00    -0.298 N 
ATOM     24  H   MET A  10     -21.288  53.452  -2.695  0.00  0.00    +0.150 HD
BRANCH  23  25
ATOM     25  CA  MET A  10     -22.436  55.299  -2.810  0.00  0.00    +0.138 C 
BRANCH  25  26
ATOM     26  C   MET A  10     -22.225  55.418  -4.322  0.00  0.00    +0.227 C 
ATOM     27  O   MET A  10     -21.354  54.761  -4.889  0.00  0.00    -0.286 OA
ENDBRANCH  25  26
BRANCH  25  28
ATOM     28  CB  MET A  10     -21.702  56.381  -2.020  0.00  0.00    +0.039 C 
BRANCH  28  29
ATOM     29  CG  MET A  10     -20.260  56.578  -2.403  0.00  0.00    +0.060 C 
BRANCH  29  30
ATOM     30  SD  MET A  10     -19.772  58.211  -1.850  0.00  0.00    -0.139 S 
ATOM     31  CE  MET A  10     -18.156  58.260  -2.618  0.00  0.00    +0.069 C 
ENDBRANCH  29  30
ENDBRANCH  28  29
ENDBRANCH  25  28
ENDBRANCH  23  25
ENDBRANCH  20  21
BRANCH  20  32
ATOM     32  CB  PHE A   9     -23.199  51.044  -2.064  0.00  0.00    +0.055 C 
BRANCH  32  33
ATOM     33  CG  PHE A   9     -24.689  51.221  -2.214  0.00  0.00    -0.020 A 
ATOM     34  CD2 PHE A   9     -25.559  50.737  -1.257  0.00  0.00    -0.004 A 
ATOM     35  CE2 PHE A   9     -26.924  50.891  -1.399  0.00  0.00    -0.000 A 
ATOM     36  CZ  PHE A   9     -27.433  51.528  -2.514  0.00  0.00    -0.000 A 
ATOM     37  CE1 PHE A   9     -26.574  52.006  -3.479  0.00  0.00    -0.000 A 
ATOM     38  CD1 PHE A   9     -25.214  51.852  -3.328  0.00  0.00    -0.004 A 
ENDBRANCH  32  33
ENDBRANCH  20  32
ENDBRANCH  18  20
ENDBRANCH  15  16
ENDBRANCH  13  15
ENDBRANCH  10  11
ENDBRANCH   7  10
ENDBRANCH   5   6
BRANCH   5  39
ATOM     39  CB  ILE A   6     -17.186  51.671   6.907  0.00  0.00    +0.027 C 
ATOM     40  CG2 ILE A   6     -17.890  52.045   8.210  0.00  0.00    +0.002 C 
BRANCH  39  41
ATOM     41  CG1 ILE A   6     -16.161  50.553   7.145  0.00  0.00    +0.002 C 
ATOM     42  CD1 ILE A   6     -15.210  50.779   8.290  0.00  0.00    +0.000 C 
ENDBRANCH  39  41
ENDBRANCH   5  39
ENDBRANCH   2   5
BRANCH   1  43
ATOM     43  CA  GLY A   5     -17.367  50.883   2.148  0.00  0.00    +0.176 C 
BRANCH  43  45
ATOM     44  C   GLY A   4     -17.653  50.434  -0.206  0.00  0.00    +0.243 C 
ATOM     45  N   GLY A   5     -18.200  50.595   0.993  0.00  0.00    -0.295 N 
ATOM     46  H   GLY A   5     -19.231  50.514   1.106  0.00  0.00    +0.150 HD
ATOM     47  O   GLY A   4     -16.436  50.426  -0.380  0.00  0.00    -0.273 OA
BRANCH  44  48
ATOM     48  CA  GLY A   4     -18.610  50.211  -1.365  0.00  0.00    +0.176 C 
BRANCH  48  50
ATOM     49  C   VAL A   3     -18.865  51.709  -3.243  0.00  0.00    +0.241 C 
ATOM     50  N   GLY A   4     -18.175  50.743  -2.647  0.00  0.00    -0.295 N 
ATOM     51  H   GLY A   4     -17.319  50.365  -3.100  0.00  0.00    +0.150 HD
ATOM     52  O   VAL A   3     -19.848  52.223  -2.724  0.00  0.00    -0.273 OA
BRANCH  49  53
ATOM     53  CA  VAL A   3     -18.376  52.186  -4.619  0.00  0.00    +0.149 C 
BRANCH  53  55
ATOM     54  C   VAL A   2     -19.829  52.007  -6.617  0.00  0.00    +0.241 C 
ATOM     55  N   VAL A   3     -19.547  52.561  -5.437  0.00  0.00    -0.297 N 
ATOM     56  H   VAL A   3     -20.186  53.297  -5.073  0.00  0.00    +0.150 HD
ATOM     57  O   VAL A   2     -19.117  51.144  -7.149  0.00  0.00    -0.273 OA
BRANCH  54  58
ATOM     58  CA  VAL A   2     -21.060  52.549  -7.353  0.00  0.00    +0.148 C 
BRANCH  58  60
ATOM     59  C   LYS A   1     -20.834  53.512  -9.568  0.00  0.00    +0.238 C 
ATOM     60  N   VAL A   2     -20.693  52.483  -8.747  0.00  0.00    -0.297 N 
ATOM     61  H   VAL A   2     -20.303  51.594  -9.121  0.00  0.00    +0.150 HD
ATOM     62  O   LYS A   1     -21.364  54.577  -9.235  0.00  0.00    -0.274 OA
BRANCH  59  63
ATOM     63  CA  LYS A   1     -20.334  53.287 -10.986  0.00  0.00    +0.145 C 
BRANCH  63  64
ATOM     64  N   LYS A   1     -20.848  54.381 -11.786  0.00  0.00    -0.238 NA
ATOM     65  H   LYS A   1     -20.960  55.321 -11.356  0.00  0.00    +0.142 HD
ENDBRANCH  63  64
BRANCH  63  66
ATOM     66  CB  LYS A   1     -18.797  53.213 -11.042  0.00  0.00    +0.026 C 
BRANCH  66  67
ATOM     67  CG  LYS A   1     -18.208  51.837 -10.750  0.00  0.00    -0.000 C 
BRANCH  67  68
ATOM     68  CD  LYS A   1     -16.688  51.890 -10.706  0.00  0.00    -0.024 C 
BRANCH  68  69
ATOM     69  CE  LYS A   1     -16.069  50.737  -9.922  0.00  0.00    -0.086 C 
BRANCH  69  70
ATOM     70  NZ  LYS A   1     -14.747  51.161  -9.371  0.00  0.00    +0.380 N 
ATOM     71  HZ1 LYS A   1     -14.881  51.977  -8.740  0.00  0.00    -0.089 HD
ATOM     72  HZ2 LYS A   1     -14.327  50.374  -8.837  0.00  0.00    -0.089 HD
ATOM     73  HZ3 LYS A   1     -14.116  51.427 -10.154  0.00  0.00    -0.089 HD
ENDBRANCH  69  70
ENDBRANCH  68  69
ENDBRANCH  67  68
ENDBRANCH  66  67
ENDBRANCH  63  66
ENDBRANCH  59  63
ENDBRANCH  58  60
BRANCH  58  74
ATOM     74  CB  VAL A   2     -22.364  51.745  -7.087  0.00  0.00    +0.027 C 
ATOM     75  CG2 VAL A   2     -22.805  51.892  -5.652  0.00  0.00    +0.002 C 
ATOM     76  CG1 VAL A   2     -23.501  52.234  -7.986  0.00  0.00    +0.002 C 
ENDBRANCH  58  74
ENDBRANCH  54  58
ENDBRANCH  53  55
BRANCH  53  77
ATOM     77  CB  VAL A   3     -17.410  53.396  -4.451  0.00  0.00    +0.027 C 
ATOM     78  CG2 VAL A   3     -16.240  53.073  -3.544  0.00  0.00    +0.002 C 
ATOM     79  CG1 VAL A   3     -16.859  53.828  -5.792  0.00  0.00    +0.002 C 
ENDBRANCH  53  77
ENDBRANCH  49  53
ENDBRANCH  48  50
ENDBRANCH  44  48
ENDBRANCH  43  45
ENDBRANCH   1  43
TORSDOF 34
REMARK  Name = ../refined-set-2016/4m8y/4m8y_pocket.pdb
REMARK  231 active torsions:
REMARK  status: ('A' for Active; 'I' for Inactive)
REMARK    1  A    between atoms: _1  and  _3
REMARK    2  A    between atoms: _3  and  _4
REMARK    3  A    between atoms: _3  and  _6
REMARK    4  A    between atoms: _6  and  _7
REMARK    5  A    between atoms: _7  and  _8
REMARK    6  A    between atoms: _8  and  _9
REMARK    7  A    between atoms: _18  and  _20
REMARK    8  A    between atoms: _20  and  _21
REMARK    9  A    between atoms: _20  and  _23
REMARK   10  A    between atoms: _23  and  _24
REMARK   11  A    between atoms: _27  and  _29
REMARK   12  A    between atoms: _29  and  _30
REMARK   13  A    between atoms: _29  and  _32
REMARK   14  A    between atoms: _32  and  _33
REMARK   15  A    between atoms: _36  and  _38
REMARK   16  A    between atoms: _38  and  _39
REMARK   17  A    between atoms: _38  and  _41
REMARK   18  A    between atoms: _41  and  _42
REMARK   19  A    between atoms: _45  and  _47
REMARK   20  A    between atoms: _47  and  _48
REMARK   21  A    between atoms: _47  and  _50
REMARK   22  A    between atoms: _50  and  _51
REMARK   23  A    between atoms: _54  and  _56
REMARK   24  A    between atoms: _56  and  _57
REMARK   25  A    between atoms: _59  and  _61
REMARK   26  A    between atoms: _61  and  _62
REMARK   27  A    between atoms: _65  and  _67
REMARK   28  A    between atoms: _67  and  _68
REMARK   29  A    between atoms: _67  and  _70
REMARK   30  A    between atoms: _70  and  _71
REMARK   31  A    between atoms: _74  and  _76
REMARK   32  A    between atoms: _76  and  _77
REMARK   33  A    between atoms: _76  and  _79
REMARK   34  A    between atoms: _79  and  _80
REMARK   35  A    between atoms: _83  and  _85
REMARK   36  A    between atoms: _85  and  _86
REMARK   37  A    between atoms: _85  and  _88
REMARK   38  A    between atoms: _88  and  _89
REMARK   39  A    between atoms: _92  and  _94
REMARK   40  A    between atoms: _94  and  _95
REMARK   41  A    between atoms: _94  and  _97
REMARK   42  A    between atoms: _97  and  _98
REMARK   43  A    between atoms: _101  and  _103
REMARK   44  A    between atoms: _103  and  _104
REMARK   45  A    between atoms: _103  and  _106
REMARK   46  A    between atoms: _106  and  _107
REMARK   47  A    between atoms: _107  and  _108
REMARK   48  A    between atoms: _108  and  _109
REMARK   49  A    between atoms: _109  and  _110
REMARK   50  A    between atoms: _114  and  _116
REMARK   51  A    between atoms: _116  and  _117
REMARK   52  A    between atoms: _116  and  _119
REMARK   53  A    between atoms: _122  and  _124
REMARK   54  A    between atoms: _124  and  _125
REMARK   55  A    between atoms: _124  and  _127
REMARK   56  A    between atoms: _130  and  _132
REMARK   57  A    between atoms: _132  and  _133
REMARK   58  A    between atoms: _135  and  _137
REMARK   59  A    between atoms: _137  and  _138
REMARK   60  A    between atoms: _140  and  _142
REMARK   61  A    between atoms: _142  and  _143
REMARK   62  A    between atoms: _142  and  _145
REMARK   63  A    between atoms: _145  and  _146
REMARK   64  A    between atoms: _149  and  _151
REMARK   65  A    between atoms: _151  and  _152
REMARK   66  A    between atoms: _154  and  _156
REMARK   67  A    between atoms: _156  and  _157
REMARK   68  A    between atoms: _159  and  _161
REMARK   69  A    between atoms: _161  and  _162
REMARK   70  A    between atoms: _161  and  _164
REMARK   71  A    between atoms: _164  and  _165
REMARK   72  A    between atoms: _171  and  _173
REMARK   73  A    between atoms: _173  and  _174
REMARK   74  A    between atoms: _173  and  _176
REMARK   75  A    between atoms: _176  and  _177
REMARK   76  A    between atoms: _177  and  _178
REMARK   77  A    between atoms: _180  and  _182
REMARK   78  A    between atoms: _182  and  _183
REMARK   79  A    between atoms: _182  and  _185
REMARK   80  A    between atoms: _185  and  _186
REMARK   81  A    between atoms: _189  and  _191
REMARK   82  A    between atoms: _191  and  _192
REMARK   83  A    between atoms: _191  and  _194
REMARK   84  A    between atoms: _194  and  _195
REMARK   85  A    between atoms: _199  and  _200
REMARK   86  A    between atoms: _205  and  _207
REMARK   87  A    between atoms: _207  and  _208
REMARK   88  A    between atoms: _211  and  _213
REMARK   89  A    between atoms: _213  and  _214
REMARK   90  A    between atoms: _213  and  _216
REMARK   91  A    between atoms: _216  and  _217
REMARK   92  A    between atoms: _222  and  _224
REMARK   93  A    between atoms: _224  and  _225
REMARK   94  A    between atoms: _224  and  _227
REMARK   95  A    between atoms: _227  and  _228
REMARK   96  A    between atoms: _231  and  _233
REMARK   97  A    between atoms: _233  and  _234
REMARK   98  A    between atoms: _233  and  _236
REMARK   99  A    between atoms: _236  and  _237
REMARK  100  A    between atoms: _240  and  _242
REMARK  101  A    between atoms: _242  and  _243
REMARK  102  A    between atoms: _245  and  _247
REMARK  103  A    between atoms: _247  and  _248
REMARK  104  A    between atoms: _247  and  _250
REMARK  105  A    between atoms: _250  and  _251
REMARK  106  A    between atoms: _251  and  _252
REMARK  107  A    between atoms: _252  and  _253
REMARK  108  A    between atoms: _262  and  _264
REMARK  109  A    between atoms: _264  and  _265
REMARK  110  A    between atoms: _264  and  _267
REMARK  111  A    between atoms: _267  and  _268
REMARK  112  A    between atoms: _273  and  _275
REMARK  113  A    between atoms: _275  and  _276
REMARK  114  A    between atoms: _275  and  _278
REMARK  115  A    between atoms: _278  and  _279
REMARK  116  A    between atoms: _279  and  _280
REMARK  117  A    between atoms: _280  and  _281
REMARK  118  A    between atoms: _290  and  _292
REMARK  119  A    between atoms: _292  and  _293
REMARK  120  A    between atoms: _292  and  _295
REMARK  121  A    between atoms: _295  and  _296
REMARK  122  A    between atoms: _302  and  _304
REMARK  123  A    between atoms: _304  and  _305
REMARK  124  A    between atoms: _304  and  _307
REMARK  125  A    between atoms: _307  and  _308
REMARK  126  A    between atoms: _311  and  _313
REMARK  127  A    between atoms: _313  and  _314
REMARK  128  A    between atoms: _313  and  _316
REMARK  129  A    between atoms: _316  and  _317
REMARK  130  A    between atoms: _320  and  _322
REMARK  131  A    between atoms: _322  and  _323
REMARK  132  A    between atoms: _322  and  _325
REMARK  133  A    between atoms: _325  and  _326
REMARK  134  A    between atoms: _329  and  _331
REMARK  135  A    between atoms: _331  and  _332
REMARK  136  A    between atoms: _331  and  _334
REMARK  137  A    between atoms: _334  and  _335
REMARK  138  A    between atoms: _338  and  _340
REMARK  139  A    between atoms: _340  and  _341
REMARK  140  A    between atoms: _343  and  _345
REMARK  141  A    between atoms: _345  and  _346
REMARK  142  A    between atoms: _349  and  _351
REMARK  143  A    between atoms: _351  and  _352
REMARK  144  A    between atoms: _351  and  _354
REMARK  145  A    between atoms: _354  and  _355
REMARK  146  A    between atoms: _358  and  _360
REMARK  147  A    between atoms: _360  and  _361
REMARK  148  A    between atoms: _360  and  _363
REMARK  149  A    between atoms: _363  and  _364
REMARK  150  A    between atoms: _367  and  _369
REMARK  151  A    between atoms: _369  and  _370
REMARK  152  A    between atoms: _369  and  _372
REMARK  153  A    between atoms: _372  and  _373
REMARK  154  A    between atoms: _376  and  _378
REMARK  155  A    between atoms: _378  and  _379
REMARK  156  A    between atoms: _378  and  _381
REMARK  157  A    between atoms: _381  and  _382
REMARK  158  A    between atoms: _385  and  _387
REMARK  159  A    between atoms: _387  and  _388
REMARK  160  A    between atoms: _387  and  _390
REMARK  161  A    between atoms: _390  and  _391
REMARK  162  A    between atoms: _391  and  _392
REMARK  163  A    between atoms: _395  and  _397
REMARK  164  A    between atoms: _397  and  _398
REMARK  165  A    between atoms: _397  and  _400
REMARK  166  A    between atoms: _400  and  _401
REMARK  167  A    between atoms: _401  and  _402
REMARK  168  A    between atoms: _402  and  _403
REMARK  169  A    between atoms: _403  and  _404
REMARK  170  A    between atoms: _408  and  _410
REMARK  171  A    between atoms: _410  and  _411
REMARK  172  A    between atoms: _410  and  _413
REMARK  173  A    between atoms: _416  and  _418
REMARK  174  A    between atoms: _418  and  _419
REMARK  175  A    between atoms: _418  and  _421
REMARK  176  A    between atoms: _424  and  _426
REMARK  177  A    between atoms: _426  and  _427
REMARK  178  A    between atoms: _429  and  _431
REMARK  179  A    between atoms: _431  and  _432
REMARK  180  A    between atoms: _434  and  _436
REMARK  181  A    between atoms: _436  and  _437
REMARK  182  A    between atoms: _436  and  _439
REMARK  183  A    between atoms: _439  and  _440
REMARK  184  A    between atoms: _443  and  _445
REMARK  185  A    between atoms: _445  and  _446
REMARK  186  A    between atoms: _448  and  _450
REMARK  187  A    between atoms: _450  and  _451
REMARK  188  A    between atoms: _453  and  _455
REMARK  189  A    between atoms: _455  and  _456
REMARK  190  A    between atoms: _455  and  _458
REMARK  191  A    between atoms: _458  and  _459
REMARK  192  A    between atoms: _459  and  _460
REMARK  193  A    between atoms: _462  and  _464
REMARK  194  A    between atoms: _464  and  _465
REMARK  195  A    between atoms: _464  and  _467
REMARK  196  A    between atoms: _470  and  _472
REMARK  197  A    between atoms: _472  and  _473
REMARK  198  A    between atoms: _472  and  _475
REMARK  199  A    between atoms: _475  and  _476
REMARK  200  A    between atoms: _480  and  _481
REMARK  201  A    between atoms: _486  and  _488
REMARK  202  A    between atoms: _488  and  _489
REMARK  203  A    between atoms: _488  and  _491
REMARK  204  A    between atoms: _491  and  _492
REMARK  205  A    between atoms: _496  and  _497
REMARK  206  A    between atoms: _502  and  _504
REMARK  207  A    between atoms: _504  and  _505
REMARK  208  A    between atoms: _508  and  _510
REMARK  209  A    between atoms: _510  and  _511
REMARK  210  A    between atoms: _510  and  _513
REMARK  211  A    between atoms: _513  and  _514
REMARK  212  A    between atoms: _519  and  _521
REMARK  213  A    between atoms: _521  and  _522
REMARK  214  A    between atoms: _521  and  _524
REMARK  215  A    between atoms: _524  and  _525
REMARK  216  A    between atoms: _528  and  _530
REMARK  217  A    between atoms: _530  and  _531
REMARK  218  A    between atoms: _530  and  _533
REMARK  219  A    between atoms: _533  and  _534
REMARK  220  A    between atoms: _537  and  _539
REMARK  221  A    between atoms: _539  and  _540
REMARK  222  A    between atoms: _542  and  _544
REMARK  223  A    between atoms: _544  and  _545
REMARK  224  A    between atoms: _544  and  _547
REMARK  225  A    between atoms: _547  and  _548
REMARK  226  A    between atoms: _548  and  _549
REMARK  227  A    between atoms: _549  and  _550
REMARK  228  A    between atoms: _559  and  _561
REMARK  229  A    between atoms: _561  and  _562
REMARK  230  A    between atoms: _561  and  _564
REMARK  231  A    between atoms: _564  and  _565
REMARK                            x       y       z     vdW  Elec       q    Type
REMARK                         _______ _______ _______ _____ _____    ______ ____
ROOT
ATOM      1  CA  LEU A   1     -14.076  58.811  -8.997  0.00  0.00    +0.133 C 
ENDROOT
BRANCH   1   2
ATOM      2  N   LEU A   1     -12.625  58.873  -9.202  0.00  0.00    -0.239 NA
ATOM      3  H   LEU A   1     -11.992  58.694  -8.396  0.00  0.00    +0.142 HD
ENDBRANCH   1   2
BRANCH   1   4
ATOM      4  C   LEU A   1     -14.510  60.068  -8.279  0.00  0.00    +0.224 C 
ATOM      5  O   LEU A   1     -13.800  60.530  -7.380  0.00  0.00    -0.287 OA
ENDBRANCH   1   4
BRANCH   1   6
ATOM      6  CB  LEU A   1     -14.472  57.568  -8.179  0.00  0.00    +0.025 C 
BRANCH   6   7
ATOM      7  CG  LEU A   1     -13.970  56.210  -8.655  0.00  0.00    +0.002 C 
ATOM      8  CD2 LEU A   1     -14.549  55.076  -7.805  0.00  0.00    +0.000 C 
ATOM      9  CD1 LEU A   1     -14.279  55.989 -10.133  0.00  0.00    +0.000 C 
ENDBRANCH   6   7
ENDBRANCH   1   6
TORSDOF 4
REMARK  Name = ../refined-set-2016/4m8y/4m8y_pocket.pdb
REMARK  231 active torsions:
REMARK  status: ('A' for Active; 'I' for Inactive)
REMARK    1  A    between atoms: _1  and  _3
REMARK    2  A    between atoms: _3  and  _4
REMARK    3  A    between atoms: _3  and  _6
REMARK    4  A    between atoms: _6  and  _7
REMARK    5  A    between atoms: _7  and  _8
REMARK    6  A    between atoms: _8  and  _9
REMARK    7  A    between atoms: _18  and  _20
REMARK    8  A    between atoms: _20  and  _21
REMARK    9  A    between atoms: _20  and  _23
REMARK   10  A    between atoms: _23  and  _24
REMARK   11  A    between atoms: _27  and  _29
REMARK   12  A    between atoms: _29  and  _30
REMARK   13  A    between atoms: _29  and  _32
REMARK   14  A    between atoms: _32  and  _33
REMARK   15  A    between atoms: _36  and  _38
REMARK   16  A    between atoms: _38  and  _39
REMARK   17  A    between atoms: _38  and  _41
REMARK   18  A    between atoms: _41  and  _42
REMARK   19  A    between atoms: _45  and  _47
REMARK   20  A    between atoms: _47  and  _48
REMARK   21  A    between atoms: _47  and  _50
REMARK   22  A    between atoms: _50  and  _51
REMARK   23  A    between atoms: _54  and  _56
REMARK   24  A    between atoms: _56  and  _57
REMARK   25  A    between atoms: _59  and  _61
REMARK   26  A    between atoms: _61  and  _62
REMARK   27  A    between atoms: _65  and  _67
REMARK   28  A    between atoms: _67  and  _68
REMARK   29  A    between atoms: _67  and  _70
REMARK   30  A    between atoms: _70  and  _71
REMARK   31  A    between atoms: _74  and  _76
REMARK   32  A    between atoms: _76  and  _77
REMARK   33  A    between atoms: _76  and  _79
REMARK   34  A    between atoms: _79  and  _80
REMARK   35  A    between atoms: _83  and  _85
REMARK   36  A    between atoms: _85  and  _86
REMARK   37  A    between atoms: _85  and  _88
REMARK   38  A    between atoms: _88  and  _89
REMARK   39  A    between atoms: _92  and  _94
REMARK   40  A    between atoms: _94  and  _95
REMARK   41  A    between atoms: _94  and  _97
REMARK   42  A    between atoms: _97  and  _98
REMARK   43  A    between atoms: _101  and  _103
REMARK   44  A    between atoms: _103  and  _104
REMARK   45  A    between atoms: _103  and  _106
REMARK   46  A    between atoms: _106  and  _107
REMARK   47  A    between atoms: _107  and  _108
REMARK   48  A    between atoms: _108  and  _109
REMARK   49  A    between atoms: _109  and  _110
REMARK   50  A    between atoms: _114  and  _116
REMARK   51  A    between atoms: _116  and  _117
REMARK   52  A    between atoms: _116  and  _119
REMARK   53  A    between atoms: _122  and  _124
REMARK   54  A    between atoms: _124  and  _125
REMARK   55  A    between atoms: _124  and  _127
REMARK   56  A    between atoms: _130  and  _132
REMARK   57  A    between atoms: _132  and  _133
REMARK   58  A    between atoms: _135  and  _137
REMARK   59  A    between atoms: _137  and  _138
REMARK   60  A    between atoms: _140  and  _142
REMARK   61  A    between atoms: _142  and  _143
REMARK   62  A    between atoms: _142  and  _145
REMARK   63  A    between atoms: _145  and  _146
REMARK   64  A    between atoms: _149  and  _151
REMARK   65  A    between atoms: _151  and  _152
REMARK   66  A    between atoms: _154  and  _156
REMARK   67  A    between atoms: _156  and  _157
REMARK   68  A    between atoms: _159  and  _161
REMARK   69  A    between atoms: _161  and  _162
REMARK   70  A    between atoms: _161  and  _164
REMARK   71  A    between atoms: _164  and  _165
REMARK   72  A    between atoms: _171  and  _173
REMARK   73  A    between atoms: _173  and  _174
REMARK   74  A    between atoms: _173  and  _176
REMARK   75  A    between atoms: _176  and  _177
REMARK   76  A    between atoms: _177  and  _178
REMARK   77  A    between atoms: _180  and  _182
REMARK   78  A    between atoms: _182  and  _183
REMARK   79  A    between atoms: _182  and  _185
REMARK   80  A    between atoms: _185  and  _186
REMARK   81  A    between atoms: _189  and  _191
REMARK   82  A    between atoms: _191  and  _192
REMARK   83  A    between atoms: _191  and  _194
REMARK   84  A    between atoms: _194  and  _195
REMARK   85  A    between atoms: _199  and  _200
REMARK   86  A    between atoms: _205  and  _207
REMARK   87  A    between atoms: _207  and  _208
REMARK   88  A    between atoms: _211  and  _213
REMARK   89  A    between atoms: _213  and  _214
REMARK   90  A    between atoms: _213  and  _216
REMARK   91  A    between atoms: _216  and  _217
REMARK   92  A    between atoms: _222  and  _224
REMARK   93  A    between atoms: _224  and  _225
REMARK   94  A    between atoms: _224  and  _227
REMARK   95  A    between atoms: _227  and  _228
REMARK   96  A    between atoms: _231  and  _233
REMARK   97  A    between atoms: _233  and  _234
REMARK   98  A    between atoms: _233  and  _236
REMARK   99  A    between atoms: _236  and  _237
REMARK  100  A    between atoms: _240  and  _242
REMARK  101  A    between atoms: _242  and  _243
REMARK  102  A    between atoms: _245  and  _247
REMARK  103  A    between atoms: _247  and  _248
REMARK  104  A    between atoms: _247  and  _250
REMARK  105  A    between atoms: _250  and  _251
REMARK  106  A    between atoms: _251  and  _252
REMARK  107  A    between atoms: _252  and  _253
REMARK  108  A    between atoms: _262  and  _264
REMARK  109  A    between atoms: _264  and  _265
REMARK  110  A    between atoms: _264  and  _267
REMARK  111  A    between atoms: _267  and  _268
REMARK  112  A    between atoms: _273  and  _275
REMARK  113  A    between atoms: _275  and  _276
REMARK  114  A    between atoms: _275  and  _278
REMARK  115  A    between atoms: _278  and  _279
REMARK  116  A    between atoms: _279  and  _280
REMARK  117  A    between atoms: _280  and  _281
REMARK  118  A    between atoms: _290  and  _292
REMARK  119  A    between atoms: _292  and  _293
REMARK  120  A    between atoms: _292  and  _295
REMARK  121  A    between atoms: _295  and  _296
REMARK  122  A    between atoms: _302  and  _304
REMARK  123  A    between atoms: _304  and  _305
REMARK  124  A    between atoms: _304  and  _307
REMARK  125  A    between atoms: _307  and  _308
REMARK  126  A    between atoms: _311  and  _313
REMARK  127  A    between atoms: _313  and  _314
REMARK  128  A    between atoms: _313  and  _316
REMARK  129  A    between atoms: _316  and  _317
REMARK  130  A    between atoms: _320  and  _322
REMARK  131  A    between atoms: _322  and  _323
REMARK  132  A    between atoms: _322  and  _325
REMARK  133  A    between atoms: _325  and  _326
REMARK  134  A    between atoms: _329  and  _331
REMARK  135  A    between atoms: _331  and  _332
REMARK  136  A    between atoms: _331  and  _334
REMARK  137  A    between atoms: _334  and  _335
REMARK  138  A    between atoms: _338  and  _340
REMARK  139  A    between atoms: _340  and  _341
REMARK  140  A    between atoms: _343  and  _345
REMARK  141  A    between atoms: _345  and  _346
REMARK  142  A    between atoms: _349  and  _351
REMARK  143  A    between atoms: _351  and  _352
REMARK  144  A    between atoms: _351  and  _354
REMARK  145  A    between atoms: _354  and  _355
REMARK  146  A    between atoms: _358  and  _360
REMARK  147  A    between atoms: _360  and  _361
REMARK  148  A    between atoms: _360  and  _363
REMARK  149  A    between atoms: _363  and  _364
REMARK  150  A    between atoms: _367  and  _369
REMARK  151  A    between atoms: _369  and  _370
REMARK  152  A    between atoms: _369  and  _372
REMARK  153  A    between atoms: _372  and  _373
REMARK  154  A    between atoms: _376  and  _378
REMARK  155  A    between atoms: _378  and  _379
REMARK  156  A    between atoms: _378  and  _381
REMARK  157  A    between atoms: _381  and  _382
REMARK  158  A    between atoms: _385  and  _387
REMARK  159  A    between atoms: _387  and  _388
REMARK  160  A    between atoms: _387  and  _390
REMARK  161  A    between atoms: _390  and  _391
REMARK  162  A    between atoms: _391  and  _392
REMARK  163  A    between atoms: _395  and  _397
REMARK  164  A    between atoms: _397  and  _398
REMARK  165  A    between atoms: _397  and  _400
REMARK  166  A    between atoms: _400  and  _401
REMARK  167  A    between atoms: _401  and  _402
REMARK  168  A    between atoms: _402  and  _403
REMARK  169  A    between atoms: _403  and  _404
REMARK  170  A    between atoms: _408  and  _410
REMARK  171  A    between atoms: _410  and  _411
REMARK  172  A    between atoms: _410  and  _413
REMARK  173  A    between atoms: _416  and  _418
REMARK  174  A    between atoms: _418  and  _419
REMARK  175  A    between atoms: _418  and  _421
REMARK  176  A    between atoms: _424  and  _426
REMARK  177  A    between atoms: _426  and  _427
REMARK  178  A    between atoms: _429  and  _431
REMARK  179  A    between atoms: _431  and  _432
REMARK  180  A    between atoms: _434  and  _436
REMARK  181  A    between atoms: _436  and  _437
REMARK  182  A    between atoms: _436  and  _439
REMARK  183  A    between atoms: _439  and  _440
REMARK  184  A    between atoms: _443  and  _445
REMARK  185  A    between atoms: _445  and  _446
REMARK  186  A    between atoms: _448  and  _450
REMARK  187  A    between atoms: _450  and  _451
REMARK  188  A    between atoms: _453  and  _455
REMARK  189  A    between atoms: _455  and  _456
REMARK  190  A    between atoms: _455  and  _458
REMARK  191  A    between atoms: _458  and  _459
REMARK  192  A    between atoms: _459  and  _460
REMARK  193  A    between atoms: _462  and  _464
REMARK  194  A    between atoms: _464  and  _465
REMARK  195  A    between atoms: _464  and  _467
REMARK  196  A    between atoms: _470  and  _472
REMARK  197  A    between atoms: _472  and  _473
REMARK  198  A    between atoms: _472  and  _475
REMARK  199  A    between atoms: _475  and  _476
REMARK  200  A    between atoms: _480  and  _481
REMARK  201  A    between atoms: _486  and  _488
REMARK  202  A    between atoms: _488  and  _489
REMARK  203  A    between atoms: _488  and  _491
REMARK  204  A    between atoms: _491  and  _492
REMARK  205  A    between atoms: _496  and  _497
REMARK  206  A    between atoms: _502  and  _504
REMARK  207  A    between atoms: _504  and  _505
REMARK  208  A    between atoms: _508  and  _510
REMARK  209  A    between atoms: _510  and  _511
REMARK  210  A    between atoms: _510  and  _513
REMARK  211  A    between atoms: _513  and  _514
REMARK  212  A    between atoms: _519  and  _521
REMARK  213  A    between atoms: _521  and  _522
REMARK  214  A    between atoms: _521  and  _524
REMARK  215  A    between atoms: _524  and  _525
REMARK  216  A    between atoms: _528  and  _530
REMARK  217  A    between atoms: _530  and  _531
REMARK  218  A    between atoms: _530  and  _533
REMARK  219  A    between atoms: _533  and  _534
REMARK  220  A    between atoms: _537  and  _539
REMARK  221  A    between atoms: _539  and  _540
REMARK  222  A    between atoms: _542  and  _544
REMARK  223  A    between atoms: _544  and  _545
REMARK  224  A    between atoms: _544  and  _547
REMARK  225  A    between atoms: _547  and  _548
REMARK  226  A    between atoms: _548  and  _549
REMARK  227  A    between atoms: _549  and  _550
REMARK  228  A    between atoms: _559  and  _561
REMARK  229  A    between atoms: _561  and  _562
REMARK  230  A    between atoms: _561  and  _564
REMARK  231  A    between atoms: _564  and  _565
REMARK                            x       y       z     vdW  Elec       q    Type
REMARK                         _______ _______ _______ _____ _____    ______ ____
ROOT
ATOM      1  C   ILE A   5      -8.203  59.582  -2.150  0.00  0.00    +0.241 C 
ATOM      2  N   ILE A   6      -6.900  59.437  -1.905  0.00  0.00    -0.297 N 
ATOM      3  H   ILE A   6      -6.522  59.683  -0.968  0.00  0.00    +0.150 HD
ATOM      4  O   ILE A   5      -8.687  59.394  -3.251  0.00  0.00    -0.273 OA
ENDROOT
BRANCH   2   5
ATOM      5  CA  ILE A   6      -5.996  58.935  -2.941  0.00  0.00    +0.149 C 
BRANCH   5   6
ATOM      6  C   ILE A   6      -5.787  57.467  -2.679  0.00  0.00    +0.241 C 
ATOM      7  O   ILE A   6      -5.235  57.112  -1.650  0.00  0.00    -0.273 OA
ATOM      8  N   GLY A   7      -6.235  56.630  -3.613  0.00  0.00    -0.295 N 
ATOM      9  H   GLY A   7      -6.624  57.032  -4.490  0.00  0.00    +0.150 HD
BRANCH   8  10
ATOM     10  CA  GLY A   7      -6.208  55.186  -3.470  0.00  0.00    +0.176 C 
BRANCH  10  11
ATOM     11  C   GLY A   7      -4.996  54.584  -4.158  0.00  0.00    +0.243 C 
ATOM     12  N   ARG A   8      -4.860  53.270  -4.042  0.00  0.00    -0.297 N 
ATOM     13  H   ARG A   8      -5.634  52.718  -3.621  0.00  0.00    +0.150 HD
ATOM     14  O   GLY A   7      -4.211  55.291  -4.800  0.00  0.00    -0.273 OA
BRANCH  12  15
ATOM     15  CA  ARG A   8      -3.644  52.568  -4.492  0.00  0.00    +0.149 C 
BRANCH  15  16
ATOM     16  C   ARG A   8      -3.422  52.689  -6.004  0.00  0.00    +0.241 C 
ATOM     17  O   ARG A   8      -2.282  52.597  -6.444  0.00  0.00    -0.273 OA
ATOM     18  N   ASN A   9      -4.493  52.880  -6.788  0.00  0.00    -0.298 N 
ATOM     19  H   ASN A   9      -5.446  52.837  -6.375  0.00  0.00    +0.150 HD
BRANCH  18  20
ATOM     20  CA  ASN A   9      -4.335  53.150  -8.226  0.00  0.00    +0.146 C 
BRANCH  20  21
ATOM     21  C   ASN A   9      -3.417  54.349  -8.540  0.00  0.00    +0.227 C 
ATOM     22  O   ASN A   9      -2.717  54.338  -9.543  0.00  0.00    -0.286 OA
ENDBRANCH  20  21
BRANCH  20  23
ATOM     23  CB  ASN A   9      -5.699  53.286  -8.950  0.00  0.00    +0.112 C 
BRANCH  23  24
ATOM     24  CG  ASN A   9      -6.387  54.596  -8.674  0.00  0.00    +0.222 C 
ATOM     25  OD1 ASN A   9      -6.716  54.917  -7.531  0.00  0.00    -0.275 OA
ATOM     26  ND2 ASN A   9      -6.628  55.358  -9.720  0.00  0.00    -0.329 N 
ATOM     27 HD21 ASN A   9      -7.114  56.270  -9.598  0.00  0.00    +0.145 HD
ATOM     28 HD22 ASN A   9      -6.333  55.048 -10.668  0.00  0.00    +0.145 HD
ENDBRANCH  23  24
ENDBRANCH  20  23
ENDBRANCH  18  20
ENDBRANCH  15  16
BRANCH  15  29
ATOM     29  CB  ARG A   8      -3.665  51.086  -4.083  0.00  0.00    +0.033 C 
BRANCH  29  30
ATOM     30  CG  ARG A   8      -3.662  50.815  -2.576  0.00  0.00    +0.045 C 
BRANCH  30  31
ATOM     31  CD  ARG A   8      -3.689  49.311  -2.256  0.00  0.00    +0.174 C 
BRANCH  31  32
ATOM     32  NE  ARG A   8      -4.901  48.635  -2.762  0.00  0.00    -0.265 N 
ATOM     33  HE  ARG A   8      -5.764  48.696  -2.185  0.00  0.00    +0.259 HD
ATOM     34  CZ  ARG A   8      -4.969  47.949  -3.911  0.00  0.00    +0.342 C 
ATOM     35  NH2 ARG A   8      -6.112  47.383  -4.273  0.00  0.00    -0.292 N 
ATOM     36 HH21 ARG A   8      -6.952  47.472  -3.666  0.00  0.00    +0.255 HD
ATOM     37 HH22 ARG A   8      -6.169  46.850  -5.164  0.00  0.00    +0.255 HD
ATOM     38  NH1 ARG A   8      -3.898  47.840  -4.705  0.00  0.00    -0.292 N 
ATOM     39 HH11 ARG A   8      -3.001  48.290  -4.433  0.00  0.00    +0.255 HD
ATOM     40 HH12 ARG A   8      -3.962  47.305  -5.595  0.00  0.00    +0.255 HD
ENDBRANCH  31  32
ENDBRANCH  30  31
ENDBRANCH  29  30
ENDBRANCH  15  29
ENDBRANCH  12  15
ENDBRANCH  10  11
ENDBRANCH   8  10
ENDBRANCH   5   6
BRANCH   5  41
ATOM     41  CB  ILE A   6      -4.611  59.644  -2.943  0.00  0.00    +0.027 C 
ATOM     42  CG2 ILE A   6      -3.731  59.089  -4.079  0.00  0.00    +0.002 C 
BRANCH  41  43
ATOM     43  CG1 ILE A   6      -4.762  61.179  -2.974  0.00  0.00    +0.002 C 
ATOM     44  CD1 ILE A   6      -5.451  61.740  -4.191  0.00  0.00    +0.000 C 
ENDBRANCH  41  43
ENDBRANCH   5  41
ENDBRANCH   2   5
BRANCH   1  45
ATOM     45  CA  ILE A   5      -9.099  59.956  -0.975  0.00  0.00    +0.149 C 
BRANCH  45  48
ATOM     46  C   ASN A   4      -9.869  62.228  -0.405  0.00  0.00    +0.241 C 
ATOM     47  O   ASN A   4      -9.175  62.303   0.612  0.00  0.00    -0.273 OA
ATOM     48  N   ILE A   5      -9.821  61.204  -1.255  0.00  0.00    -0.297 N 
ATOM     49  H   ILE A   5     -10.320  61.292  -2.163  0.00  0.00    +0.150 HD
BRANCH  46  50
ATOM     50  CA  ASN A   4     -10.855  63.345  -0.737  0.00  0.00    +0.158 C 
BRANCH  50  52
ATOM     51  C   ALA A   3     -12.417  62.715   0.998  0.00  0.00    +0.241 C 
ATOM     52  N   ASN A   4     -11.626  63.641   0.466  0.00  0.00    -0.297 N 
ATOM     53  H   ASN A   4     -11.556  64.580   0.908  0.00  0.00    +0.150 HD
ATOM     54  O   ALA A   3     -12.724  61.680   0.410  0.00  0.00    -0.273 OA
BRANCH  51  55
ATOM     55  CA  ALA A   3     -12.955  62.992   2.377  0.00  0.00    +0.149 C 
ATOM     56  CB  ALA A   3     -12.117  62.252   3.423  0.00  0.00    +0.031 C 
BRANCH  55  59
ATOM     57  C   PRO A   2     -15.232  63.232   3.272  0.00  0.00    +0.241 C 
ATOM     58  O   PRO A   2     -14.912  64.179   4.014  0.00  0.00    -0.273 OA
ATOM     59  N   ALA A   3     -14.367  62.600   2.471  0.00  0.00    -0.297 N 
ATOM     60  H   ALA A   3     -14.706  61.803   1.895  0.00  0.00    +0.150 HD
BRANCH  57  63
ATOM     61  C   THR A   1     -17.098  62.206   0.899  0.00  0.00    +0.244 C 
ATOM     62  N   PRO A   2     -16.992  61.796   2.170  0.00  0.00    -0.272 N 
ATOM     63  CA  PRO A   2     -16.680  62.720   3.270  0.00  0.00    +0.152 C 
ATOM     64  CB  PRO A   2     -16.916  61.866   4.522  0.00  0.00    +0.031 C 
ATOM     65  CG  PRO A   2     -16.807  60.452   4.054  0.00  0.00    +0.024 C 
ATOM     66  CD  PRO A   2     -17.360  60.452   2.665  0.00  0.00    +0.094 C 
ATOM     67  O   THR A   1     -16.990  63.380   0.578  0.00  0.00    -0.273 OA
BRANCH  61  68
ATOM     68  CA  THR A   1     -17.381  61.142  -0.159  0.00  0.00    +0.172 C 
BRANCH  68  69
ATOM     69  N   THR A   1     -18.326  61.646  -1.167  0.00  0.00    -0.236 NA
ATOM     70  H   THR A   1     -17.960  61.867  -2.115  0.00  0.00    +0.142 HD
ENDBRANCH  68  69
BRANCH  68  71
ATOM     71  CB  THR A   1     -16.030  60.696  -0.784  0.00  0.00    +0.135 C 
ATOM     72  CG2 THR A   1     -15.414  61.811  -1.615  0.00  0.00    +0.034 C 
BRANCH  71  73
ATOM     73  OG1 THR A   1     -15.101  60.366   0.257  0.00  0.00    -0.383 OA
ATOM     74  HG1 THR A   1     -14.242  60.083  -0.146  0.00  0.00    +0.210 HD
ENDBRANCH  71  73
ENDBRANCH  68  71
ENDBRANCH  61  68
ENDBRANCH  57  63
ENDBRANCH  55  59
ENDBRANCH  51  55
ENDBRANCH  50  52
BRANCH  50  75
ATOM     75  CB  ASN A   4     -10.121  64.587  -1.248  0.00  0.00    +0.114 C 
BRANCH  75  76
ATOM     76  CG  ASN A   4     -11.071  65.719  -1.621  0.00  0.00    +0.222 C 
ATOM     77  ND2 ASN A   4     -10.674  66.964  -1.308  0.00  0.00    -0.329 N 
ATOM     78 HD21 ASN A   4      -9.764  67.114  -0.828  0.00  0.00    +0.145 HD
ATOM     79 HD22 ASN A   4     -11.277  67.777  -1.546  0.00  0.00    +0.145 HD
ATOM     80  OD1 ASN A   4     -12.142  65.483  -2.191  0.00  0.00    -0.275 OA
ENDBRANCH  75  76
ENDBRANCH  50  75
ENDBRANCH  46  50
ENDBRANCH  45  48
BRANCH  45  81
ATOM     81  CB  ILE A   5     -10.089  58.789  -0.728  0.00  0.00    +0.027 C 
ATOM     82  CG2 ILE A   5      -9.394  57.431  -0.723  0.00  0.00    +0.002 C 
BRANCH  81  83
ATOM     83  CG1 ILE A   5     -10.811  58.942   0.609  0.00  0.00    +0.002 C 
ATOM     84  CD1 ILE A   5     -11.895  57.889   0.756  0.00  0.00    +0.000 C 
ENDBRANCH  81  83
ENDBRANCH  45  81
ENDBRANCH   1  45
TORSDOF 31
REMARK  Name = ../refined-set-2016/4m8y/4m8y_pocket.pdb
REMARK  231 active torsions:
REMARK  status: ('A' for Active; 'I' for Inactive)
REMARK    1  A    between atoms: _1  and  _3
REMARK    2  A    between atoms: _3  and  _4
REMARK    3  A    between atoms: _3  and  _6
REMARK    4  A    between atoms: _6  and  _7
REMARK    5  A    between atoms: _7  and  _8
REMARK    6  A    between atoms: _8  and  _9
REMARK    7  A    between atoms: _18  and  _20
REMARK    8  A    between atoms: _20  and  _21
REMARK    9  A    between atoms: _20  and  _23
REMARK   10  A    between atoms: _23  and  _24
REMARK   11  A    between atoms: _27  and  _29
REMARK   12  A    between atoms: _29  and  _30
REMARK   13  A    between atoms: _29  and  _32
REMARK   14  A    between atoms: _32  and  _33
REMARK   15  A    between atoms: _36  and  _38
REMARK   16  A    between atoms: _38  and  _39
REMARK   17  A    between atoms: _38  and  _41
REMARK   18  A    between atoms: _41  and  _42
REMARK   19  A    between atoms: _45  and  _47
REMARK   20  A    between atoms: _47  and  _48
REMARK   21  A    between atoms: _47  and  _50
REMARK   22  A    between atoms: _50  and  _51
REMARK   23  A    between atoms: _54  and  _56
REMARK   24  A    between atoms: _56  and  _57
REMARK   25  A    between atoms: _59  and  _61
REMARK   26  A    between atoms: _61  and  _62
REMARK   27  A    between atoms: _65  and  _67
REMARK   28  A    between atoms: _67  and  _68
REMARK   29  A    between atoms: _67  and  _70
REMARK   30  A    between atoms: _70  and  _71
REMARK   31  A    between atoms: _74  and  _76
REMARK   32  A    between atoms: _76  and  _77
REMARK   33  A    between atoms: _76  and  _79
REMARK   34  A    between atoms: _79  and  _80
REMARK   35  A    between atoms: _83  and  _85
REMARK   36  A    between atoms: _85  and  _86
REMARK   37  A    between atoms: _85  and  _88
REMARK   38  A    between atoms: _88  and  _89
REMARK   39  A    between atoms: _92  and  _94
REMARK   40  A    between atoms: _94  and  _95
REMARK   41  A    between atoms: _94  and  _97
REMARK   42  A    between atoms: _97  and  _98
REMARK   43  A    between atoms: _101  and  _103
REMARK   44  A    between atoms: _103  and  _104
REMARK   45  A    between atoms: _103  and  _106
REMARK   46  A    between atoms: _106  and  _107
REMARK   47  A    between atoms: _107  and  _108
REMARK   48  A    between atoms: _108  and  _109
REMARK   49  A    between atoms: _109  and  _110
REMARK   50  A    between atoms: _114  and  _116
REMARK   51  A    between atoms: _116  and  _117
REMARK   52  A    between atoms: _116  and  _119
REMARK   53  A    between atoms: _122  and  _124
REMARK   54  A    between atoms: _124  and  _125
REMARK   55  A    between atoms: _124  and  _127
REMARK   56  A    between atoms: _130  and  _132
REMARK   57  A    between atoms: _132  and  _133
REMARK   58  A    between atoms: _135  and  _137
REMARK   59  A    between atoms: _137  and  _138
REMARK   60  A    between atoms: _140  and  _142
REMARK   61  A    between atoms: _142  and  _143
REMARK   62  A    between atoms: _142  and  _145
REMARK   63  A    between atoms: _145  and  _146
REMARK   64  A    between atoms: _149  and  _151
REMARK   65  A    between atoms: _151  and  _152
REMARK   66  A    between atoms: _154  and  _156
REMARK   67  A    between atoms: _156  and  _157
REMARK   68  A    between atoms: _159  and  _161
REMARK   69  A    between atoms: _161  and  _162
REMARK   70  A    between atoms: _161  and  _164
REMARK   71  A    between atoms: _164  and  _165
REMARK   72  A    between atoms: _171  and  _173
REMARK   73  A    between atoms: _173  and  _174
REMARK   74  A    between atoms: _173  and  _176
REMARK   75  A    between atoms: _176  and  _177
REMARK   76  A    between atoms: _177  and  _178
REMARK   77  A    between atoms: _180  and  _182
REMARK   78  A    between atoms: _182  and  _183
REMARK   79  A    between atoms: _182  and  _185
REMARK   80  A    between atoms: _185  and  _186
REMARK   81  A    between atoms: _189  and  _191
REMARK   82  A    between atoms: _191  and  _192
REMARK   83  A    between atoms: _191  and  _194
REMARK   84  A    between atoms: _194  and  _195
REMARK   85  A    between atoms: _199  and  _200
REMARK   86  A    between atoms: _205  and  _207
REMARK   87  A    between atoms: _207  and  _208
REMARK   88  A    between atoms: _211  and  _213
REMARK   89  A    between atoms: _213  and  _214
REMARK   90  A    between atoms: _213  and  _216
REMARK   91  A    between atoms: _216  and  _217
REMARK   92  A    between atoms: _222  and  _224
REMARK   93  A    between atoms: _224  and  _225
REMARK   94  A    between atoms: _224  and  _227
REMARK   95  A    between atoms: _227  and  _228
REMARK   96  A    between atoms: _231  and  _233
REMARK   97  A    between atoms: _233  and  _234
REMARK   98  A    between atoms: _233  and  _236
REMARK   99  A    between atoms: _236  and  _237
REMARK  100  A    between atoms: _240  and  _242
REMARK  101  A    between atoms: _242  and  _243
REMARK  102  A    between atoms: _245  and  _247
REMARK  103  A    between atoms: _247  and  _248
REMARK  104  A    between atoms: _247  and  _250
REMARK  105  A    between atoms: _250  and  _251
REMARK  106  A    between atoms: _251  and  _252
REMARK  107  A    between atoms: _252  and  _253
REMARK  108  A    between atoms: _262  and  _264
REMARK  109  A    between atoms: _264  and  _265
REMARK  110  A    between atoms: _264  and  _267
REMARK  111  A    between atoms: _267  and  _268
REMARK  112  A    between atoms: _273  and  _275
REMARK  113  A    between atoms: _275  and  _276
REMARK  114  A    between atoms: _275  and  _278
REMARK  115  A    between atoms: _278  and  _279
REMARK  116  A    between atoms: _279  and  _280
REMARK  117  A    between atoms: _280  and  _281
REMARK  118  A    between atoms: _290  and  _292
REMARK  119  A    between atoms: _292  and  _293
REMARK  120  A    between atoms: _292  and  _295
REMARK  121  A    between atoms: _295  and  _296
REMARK  122  A    between atoms: _302  and  _304
REMARK  123  A    between atoms: _304  and  _305
REMARK  124  A    between atoms: _304  and  _307
REMARK  125  A    between atoms: _307  and  _308
REMARK  126  A    between atoms: _311  and  _313
REMARK  127  A    between atoms: _313  and  _314
REMARK  128  A    between atoms: _313  and  _316
REMARK  129  A    between atoms: _316  and  _317
REMARK  130  A    between atoms: _320  and  _322
REMARK  131  A    between atoms: _322  and  _323
REMARK  132  A    between atoms: _322  and  _325
REMARK  133  A    between atoms: _325  and  _326
REMARK  134  A    between atoms: _329  and  _331
REMARK  135  A    between atoms: _331  and  _332
REMARK  136  A    between atoms: _331  and  _334
REMARK  137  A    between atoms: _334  and  _335
REMARK  138  A    between atoms: _338  and  _340
REMARK  139  A    between atoms: _340  and  _341
REMARK  140  A    between atoms: _343  and  _345
REMARK  141  A    between atoms: _345  and  _346
REMARK  142  A    between atoms: _349  and  _351
REMARK  143  A    between atoms: _351  and  _352
REMARK  144  A    between atoms: _351  and  _354
REMARK  145  A    between atoms: _354  and  _355
REMARK  146  A    between atoms: _358  and  _360
REMARK  147  A    between atoms: _360  and  _361
REMARK  148  A    between atoms: _360  and  _363
REMARK  149  A    between atoms: _363  and  _364
REMARK  150  A    between atoms: _367  and  _369
REMARK  151  A    between atoms: _369  and  _370
REMARK  152  A    between atoms: _369  and  _372
REMARK  153  A    between atoms: _372  and  _373
REMARK  154  A    between atoms: _376  and  _378
REMARK  155  A    between atoms: _378  and  _379
REMARK  156  A    between atoms: _378  and  _381
REMARK  157  A    between atoms: _381  and  _382
REMARK  158  A    between atoms: _385  and  _387
REMARK  159  A    between atoms: _387  and  _388
REMARK  160  A    between atoms: _387  and  _390
REMARK  161  A    between atoms: _390  and  _391
REMARK  162  A    between atoms: _391  and  _392
REMARK  163  A    between atoms: _395  and  _397
REMARK  164  A    between atoms: _397  and  _398
REMARK  165  A    between atoms: _397  and  _400
REMARK  166  A    between atoms: _400  and  _401
REMARK  167  A    between atoms: _401  and  _402
REMARK  168  A    between atoms: _402  and  _403
REMARK  169  A    between atoms: _403  and  _404
REMARK  170  A    between atoms: _408  and  _410
REMARK  171  A    between atoms: _410  and  _411
REMARK  172  A    between atoms: _410  and  _413
REMARK  173  A    between atoms: _416  and  _418
REMARK  174  A    between atoms: _418  and  _419
REMARK  175  A    between atoms: _418  and  _421
REMARK  176  A    between atoms: _424  and  _426
REMARK  177  A    between atoms: _426  and  _427
REMARK  178  A    between atoms: _429  and  _431
REMARK  179  A    between atoms: _431  and  _432
REMARK  180  A    between atoms: _434  and  _436
REMARK  181  A    between atoms: _436  and  _437
REMARK  182  A    between atoms: _436  and  _439
REMARK  183  A    between atoms: _439  and  _440
REMARK  184  A    between atoms: _443  and  _445
REMARK  185  A    between atoms: _445  and  _446
REMARK  186  A    between atoms: _448  and  _450
REMARK  187  A    between atoms: _450  and  _451
REMARK  188  A    between atoms: _453  and  _455
REMARK  189  A    between atoms: _455  and  _456
REMARK  190  A    between atoms: _455  and  _458
REMARK  191  A    between atoms: _458  and  _459
REMARK  192  A    between atoms: _459  and  _460
REMARK  193  A    between atoms: _462  and  _464
REMARK  194  A    between atoms: _464  and  _465
REMARK  195  A    between atoms: _464  and  _467
REMARK  196  A    between atoms: _470  and  _472
REMARK  197  A    between atoms: _472  and  _473
REMARK  198  A    between atoms: _472  and  _475
REMARK  199  A    between atoms: _475  and  _476
REMARK  200  A    between atoms: _480  and  _481
REMARK  201  A    between atoms: _486  and  _488
REMARK  202  A    between atoms: _488  and  _489
REMARK  203  A    between atoms: _488  and  _491
REMARK  204  A    between atoms: _491  and  _492
REMARK  205  A    between atoms: _496  and  _497
REMARK  206  A    between atoms: _502  and  _504
REMARK  207  A    between atoms: _504  and  _505
REMARK  208  A    between atoms: _508  and  _510
REMARK  209  A    between atoms: _510  and  _511
REMARK  210  A    between atoms: _510  and  _513
REMARK  211  A    between atoms: _513  and  _514
REMARK  212  A    between atoms: _519  and  _521
REMARK  213  A    between atoms: _521  and  _522
REMARK  214  A    between atoms: _521  and  _524
REMARK  215  A    between atoms: _524  and  _525
REMARK  216  A    between atoms: _528  and  _530
REMARK  217  A    between atoms: _530  and  _531
REMARK  218  A    between atoms: _530  and  _533
REMARK  219  A    between atoms: _533  and  _534
REMARK  220  A    between atoms: _537  and  _539
REMARK  221  A    between atoms: _539  and  _540
REMARK  222  A    between atoms: _542  and  _544
REMARK  223  A    between atoms: _544  and  _545
REMARK  224  A    between atoms: _544  and  _547
REMARK  225  A    between atoms: _547  and  _548
REMARK  226  A    between atoms: _548  and  _549
REMARK  227  A    between atoms: _549  and  _550
REMARK  228  A    between atoms: _559  and  _561
REMARK  229  A    between atoms: _561  and  _562
REMARK  230  A    between atoms: _561  and  _564
REMARK  231  A    between atoms: _564  and  _565
REMARK                            x       y       z     vdW  Elec       q    Type
REMARK                         _______ _______ _______ _____ _____    ______ ____
ROOT
ATOM      1  NE  ARG A   1      -9.074  45.070  -2.042  0.00  0.00    -0.265 N 
ATOM      2  CZ  ARG A   1     -10.303  45.006  -1.513  0.00  0.00    +0.342 C 
ATOM      3  NH2 ARG A   1     -10.551  44.256  -0.430  0.00  0.00    -0.292 N 
ATOM      4 HH21 ARG A   1      -9.783  43.712   0.013  0.00  0.00    +0.255 HD
ATOM      5 HH22 ARG A   1     -11.511  44.218  -0.033  0.00  0.00    +0.255 HD
ATOM      6  NH1 ARG A   1     -11.297  45.705  -2.066  0.00  0.00    -0.292 N 
ATOM      7 HH11 ARG A   1     -12.253  45.659  -1.660  0.00  0.00    +0.255 HD
ATOM      8 HH12 ARG A   1     -11.115  46.295  -2.903  0.00  0.00    +0.255 HD
ATOM      9  HE  ARG A   1      -8.941  45.667  -2.883  0.00  0.00    +0.259 HD
ENDROOT
BRANCH   1  10
ATOM     10  CD  ARG A   1      -7.908  44.361  -1.522  0.00  0.00    +0.174 C 
BRANCH  10  11
ATOM     11  CG  ARG A   1      -6.608  45.093  -1.794  0.00  0.00    +0.045 C 
BRANCH  11  12
ATOM     12  CB  ARG A   1      -5.569  44.778  -0.723  0.00  0.00    +0.029 C 
BRANCH  12  13
ATOM     13  CA  ARG A   1      -4.181  45.356  -0.979  0.00  0.00    +0.133 C 
BRANCH  13  14
ATOM     14  N   ARG A   1      -3.641  44.853  -2.244  0.00  0.00    -0.239 NA
ATOM     15  H   ARG A   1      -4.225  44.228  -2.836  0.00  0.00    +0.142 HD
ENDBRANCH  13  14
BRANCH  13  16
ATOM     16  C   ARG A   1      -3.214  44.945   0.139  0.00  0.00    +0.224 C 
ATOM     17  O   ARG A   1      -2.802  43.791   0.174  0.00  0.00    -0.287 OA
ENDBRANCH  13  16
ENDBRANCH  12  13
ENDBRANCH  11  12
ENDBRANCH  10  11
ENDBRANCH   1  10
TORSDOF 6
REMARK  Name = ../refined-set-2016/4m8y/4m8y_pocket.pdb
REMARK  231 active torsions:
REMARK  status: ('A' for Active; 'I' for Inactive)
REMARK    1  A    between atoms: _1  and  _3
REMARK    2  A    between atoms: _3  and  _4
REMARK    3  A    between atoms: _3  and  _6
REMARK    4  A    between atoms: _6  and  _7
REMARK    5  A    between atoms: _7  and  _8
REMARK    6  A    between atoms: _8  and  _9
REMARK    7  A    between atoms: _18  and  _20
REMARK    8  A    between atoms: _20  and  _21
REMARK    9  A    between atoms: _20  and  _23
REMARK   10  A    between atoms: _23  and  _24
REMARK   11  A    between atoms: _27  and  _29
REMARK   12  A    between atoms: _29  and  _30
REMARK   13  A    between atoms: _29  and  _32
REMARK   14  A    between atoms: _32  and  _33
REMARK   15  A    between atoms: _36  and  _38
REMARK   16  A    between atoms: _38  and  _39
REMARK   17  A    between atoms: _38  and  _41
REMARK   18  A    between atoms: _41  and  _42
REMARK   19  A    between atoms: _45  and  _47
REMARK   20  A    between atoms: _47  and  _48
REMARK   21  A    between atoms: _47  and  _50
REMARK   22  A    between atoms: _50  and  _51
REMARK   23  A    between atoms: _54  and  _56
REMARK   24  A    between atoms: _56  and  _57
REMARK   25  A    between atoms: _59  and  _61
REMARK   26  A    between atoms: _61  and  _62
REMARK   27  A    between atoms: _65  and  _67
REMARK   28  A    between atoms: _67  and  _68
REMARK   29  A    between atoms: _67  and  _70
REMARK   30  A    between atoms: _70  and  _71
REMARK   31  A    between atoms: _74  and  _76
REMARK   32  A    between atoms: _76  and  _77
REMARK   33  A    between atoms: _76  and  _79
REMARK   34  A    between atoms: _79  and  _80
REMARK   35  A    between atoms: _83  and  _85
REMARK   36  A    between atoms: _85  and  _86
REMARK   37  A    between atoms: _85  and  _88
REMARK   38  A    between atoms: _88  and  _89
REMARK   39  A    between atoms: _92  and  _94
REMARK   40  A    between atoms: _94  and  _95
REMARK   41  A    between atoms: _94  and  _97
REMARK   42  A    between atoms: _97  and  _98
REMARK   43  A    between atoms: _101  and  _103
REMARK   44  A    between atoms: _103  and  _104
REMARK   45  A    between atoms: _103  and  _106
REMARK   46  A    between atoms: _106  and  _107
REMARK   47  A    between atoms: _107  and  _108
REMARK   48  A    between atoms: _108  and  _109
REMARK   49  A    between atoms: _109  and  _110
REMARK   50  A    between atoms: _114  and  _116
REMARK   51  A    between atoms: _116  and  _117
REMARK   52  A    between atoms: _116  and  _119
REMARK   53  A    between atoms: _122  and  _124
REMARK   54  A    between atoms: _124  and  _125
REMARK   55  A    between atoms: _124  and  _127
REMARK   56  A    between atoms: _130  and  _132
REMARK   57  A    between atoms: _132  and  _133
REMARK   58  A    between atoms: _135  and  _137
REMARK   59  A    between atoms: _137  and  _138
REMARK   60  A    between atoms: _140  and  _142
REMARK   61  A    between atoms: _142  and  _143
REMARK   62  A    between atoms: _142  and  _145
REMARK   63  A    between atoms: _145  and  _146
REMARK   64  A    between atoms: _149  and  _151
REMARK   65  A    between atoms: _151  and  _152
REMARK   66  A    between atoms: _154  and  _156
REMARK   67  A    between atoms: _156  and  _157
REMARK   68  A    between atoms: _159  and  _161
REMARK   69  A    between atoms: _161  and  _162
REMARK   70  A    between atoms: _161  and  _164
REMARK   71  A    between atoms: _164  and  _165
REMARK   72  A    between atoms: _171  and  _173
REMARK   73  A    between atoms: _173  and  _174
REMARK   74  A    between atoms: _173  and  _176
REMARK   75  A    between atoms: _176  and  _177
REMARK   76  A    between atoms: _177  and  _178
REMARK   77  A    between atoms: _180  and  _182
REMARK   78  A    between atoms: _182  and  _183
REMARK   79  A    between atoms: _182  and  _185
REMARK   80  A    between atoms: _185  and  _186
REMARK   81  A    between atoms: _189  and  _191
REMARK   82  A    between atoms: _191  and  _192
REMARK   83  A    between atoms: _191  and  _194
REMARK   84  A    between atoms: _194  and  _195
REMARK   85  A    between atoms: _199  and  _200
REMARK   86  A    between atoms: _205  and  _207
REMARK   87  A    between atoms: _207  and  _208
REMARK   88  A    between atoms: _211  and  _213
REMARK   89  A    between atoms: _213  and  _214
REMARK   90  A    between atoms: _213  and  _216
REMARK   91  A    between atoms: _216  and  _217
REMARK   92  A    between atoms: _222  and  _224
REMARK   93  A    between atoms: _224  and  _225
REMARK   94  A    between atoms: _224  and  _227
REMARK   95  A    between atoms: _227  and  _228
REMARK   96  A    between atoms: _231  and  _233
REMARK   97  A    between atoms: _233  and  _234
REMARK   98  A    between atoms: _233  and  _236
REMARK   99  A    between atoms: _236  and  _237
REMARK  100  A    between atoms: _240  and  _242
REMARK  101  A    between atoms: _242  and  _243
REMARK  102  A    between atoms: _245  and  _247
REMARK  103  A    between atoms: _247  and  _248
REMARK  104  A    between atoms: _247  and  _250
REMARK  105  A    between atoms: _250  and  _251
REMARK  106  A    between atoms: _251  and  _252
REMARK  107  A    between atoms: _252  and  _253
REMARK  108  A    between atoms: _262  and  _264
REMARK  109  A    between atoms: _264  and  _265
REMARK  110  A    between atoms: _264  and  _267
REMARK  111  A    between atoms: _267  and  _268
REMARK  112  A    between atoms: _273  and  _275
REMARK  113  A    between atoms: _275  and  _276
REMARK  114  A    between atoms: _275  and  _278
REMARK  115  A    between atoms: _278  and  _279
REMARK  116  A    between atoms: _279  and  _280
REMARK  117  A    between atoms: _280  and  _281
REMARK  118  A    between atoms: _290  and  _292
REMARK  119  A    between atoms: _292  and  _293
REMARK  120  A    between atoms: _292  and  _295
REMARK  121  A    between atoms: _295  and  _296
REMARK  122  A    between atoms: _302  and  _304
REMARK  123  A    between atoms: _304  and  _305
REMARK  124  A    between atoms: _304  and  _307
REMARK  125  A    between atoms: _307  and  _308
REMARK  126  A    between atoms: _311  and  _313
REMARK  127  A    between atoms: _313  and  _314
REMARK  128  A    between atoms: _313  and  _316
REMARK  129  A    between atoms: _316  and  _317
REMARK  130  A    between atoms: _320  and  _322
REMARK  131  A    between atoms: _322  and  _323
REMARK  132  A    between atoms: _322  and  _325
REMARK  133  A    between atoms: _325  and  _326
REMARK  134  A    between atoms: _329  and  _331
REMARK  135  A    between atoms: _331  and  _332
REMARK  136  A    between atoms: _331  and  _334
REMARK  137  A    between atoms: _334  and  _335
REMARK  138  A    between atoms: _338  and  _340
REMARK  139  A    between atoms: _340  and  _341
REMARK  140  A    between atoms: _343  and  _345
REMARK  141  A    between atoms: _345  and  _346
REMARK  142  A    between atoms: _349  and  _351
REMARK  143  A    between atoms: _351  and  _352
REMARK  144  A    between atoms: _351  and  _354
REMARK  145  A    between atoms: _354  and  _355
REMARK  146  A    between atoms: _358  and  _360
REMARK  147  A    between atoms: _360  and  _361
REMARK  148  A    between atoms: _360  and  _363
REMARK  149  A    between atoms: _363  and  _364
REMARK  150  A    between atoms: _367  and  _369
REMARK  151  A    between atoms: _369  and  _370
REMARK  152  A    between atoms: _369  and  _372
REMARK  153  A    between atoms: _372  and  _373
REMARK  154  A    between atoms: _376  and  _378
REMARK  155  A    between atoms: _378  and  _379
REMARK  156  A    between atoms: _378  and  _381
REMARK  157  A    between atoms: _381  and  _382
REMARK  158  A    between atoms: _385  and  _387
REMARK  159  A    between atoms: _387  and  _388
REMARK  160  A    between atoms: _387  and  _390
REMARK  161  A    between atoms: _390  and  _391
REMARK  162  A    between atoms: _391  and  _392
REMARK  163  A    between atoms: _395  and  _397
REMARK  164  A    between atoms: _397  and  _398
REMARK  165  A    between atoms: _397  and  _400
REMARK  166  A    between atoms: _400  and  _401
REMARK  167  A    between atoms: _401  and  _402
REMARK  168  A    between atoms: _402  and  _403
REMARK  169  A    between atoms: _403  and  _404
REMARK  170  A    between atoms: _408  and  _410
REMARK  171  A    between atoms: _410  and  _411
REMARK  172  A    between atoms: _410  and  _413
REMARK  173  A    between atoms: _416  and  _418
REMARK  174  A    between atoms: _418  and  _419
REMARK  175  A    between atoms: _418  and  _421
REMARK  176  A    between atoms: _424  and  _426
REMARK  177  A    between atoms: _426  and  _427
REMARK  178  A    between atoms: _429  and  _431
REMARK  179  A    between atoms: _431  and  _432
REMARK  180  A    between atoms: _434  and  _436
REMARK  181  A    between atoms: _436  and  _437
REMARK  182  A    between atoms: _436  and  _439
REMARK  183  A    between atoms: _439  and  _440
REMARK  184  A    between atoms: _443  and  _445
REMARK  185  A    between atoms: _445  and  _446
REMARK  186  A    between atoms: _448  and  _450
REMARK  187  A    between atoms: _450  and  _451
REMARK  188  A    between atoms: _453  and  _455
REMARK  189  A    between atoms: _455  and  _456
REMARK  190  A    between atoms: _455  and  _458
REMARK  191  A    between atoms: _458  and  _459
REMARK  192  A    between atoms: _459  and  _460
REMARK  193  A    between atoms: _462  and  _464
REMARK  194  A    between atoms: _464  and  _465
REMARK  195  A    between atoms: _464  and  _467
REMARK  196  A    between atoms: _470  and  _472
REMARK  197  A    between atoms: _472  and  _473
REMARK  198  A    between atoms: _472  and  _475
REMARK  199  A    between atoms: _475  and  _476
REMARK  200  A    between atoms: _480  and  _481
REMARK  201  A    between atoms: _486  and  _488
REMARK  202  A    between atoms: _488  and  _489
REMARK  203  A    between atoms: _488  and  _491
REMARK  204  A    between atoms: _491  and  _492
REMARK  205  A    between atoms: _496  and  _497
REMARK  206  A    between atoms: _502  and  _504
REMARK  207  A    between atoms: _504  and  _505
REMARK  208  A    between atoms: _508  and  _510
REMARK  209  A    between atoms: _510  and  _511
REMARK  210  A    between atoms: _510  and  _513
REMARK  211  A    between atoms: _513  and  _514
REMARK  212  A    between atoms: _519  and  _521
REMARK  213  A    between atoms: _521  and  _522
REMARK  214  A    between atoms: _521  and  _524
REMARK  215  A    between atoms: _524  and  _525
REMARK  216  A    between atoms: _528  and  _530
REMARK  217  A    between atoms: _530  and  _531
REMARK  218  A    between atoms: _530  and  _533
REMARK  219  A    between atoms: _533  and  _534
REMARK  220  A    between atoms: _537  and  _539
REMARK  221  A    between atoms: _539  and  _540
REMARK  222  A    between atoms: _542  and  _544
REMARK  223  A    between atoms: _544  and  _545
REMARK  224  A    between atoms: _544  and  _547
REMARK  225  A    between atoms: _547  and  _548
REMARK  226  A    between atoms: _548  and  _549
REMARK  227  A    between atoms: _549  and  _550
REMARK  228  A    between atoms: _559  and  _561
REMARK  229  A    between atoms: _561  and  _562
REMARK  230  A    between atoms: _561  and  _564
REMARK  231  A    between atoms: _564  and  _565
REMARK                            x       y       z     vdW  Elec       q    Type
REMARK                         _______ _______ _______ _____ _____    ______ ____
ROOT
ATOM      1  CB  PHE A   1      -4.199  41.466   3.541  0.00  0.00    +0.051 C 
ENDROOT
BRANCH   1   2
ATOM      2  CG  PHE A   1      -5.649  41.865   3.319  0.00  0.00    -0.020 A 
ATOM      3  CD2 PHE A   1      -6.527  41.993   4.391  0.00  0.00    -0.004 A 
ATOM      4  CE2 PHE A   1      -7.847  42.357   4.198  0.00  0.00    -0.000 A 
ATOM      5  CZ  PHE A   1      -8.310  42.602   2.907  0.00  0.00    -0.000 A 
ATOM      6  CE1 PHE A   1      -7.450  42.490   1.828  0.00  0.00    -0.000 A 
ATOM      7  CD1 PHE A   1      -6.132  42.111   2.038  0.00  0.00    -0.004 A 
ENDBRANCH   1   2
BRANCH   1   8
ATOM      8  CA  PHE A   1      -3.314  42.601   4.114  0.00  0.00    +0.137 C 
BRANCH   8   9
ATOM      9  N   PHE A   1      -2.848  43.515   3.056  0.00  0.00    -0.239 NA
ATOM     10  H   PHE A   1      -2.846  43.182   2.071  0.00  0.00    +0.142 HD
ENDBRANCH   8   9
BRANCH   8  11
ATOM     11  C   PHE A   1      -2.121  42.025   4.898  0.00  0.00    +0.224 C 
ATOM     12  O   PHE A   1      -1.111  41.655   4.293  0.00  0.00    -0.287 OA
ENDBRANCH   8  11
ENDBRANCH   1   8
TORSDOF 4
REMARK  Name = ../refined-set-2016/4m8y/4m8y_pocket.pdb
REMARK  231 active torsions:
REMARK  status: ('A' for Active; 'I' for Inactive)
REMARK    1  A    between atoms: _1  and  _3
REMARK    2  A    between atoms: _3  and  _4
REMARK    3  A    between atoms: _3  and  _6
REMARK    4  A    between atoms: _6  and  _7
REMARK    5  A    between atoms: _7  and  _8
REMARK    6  A    between atoms: _8  and  _9
REMARK    7  A    between atoms: _18  and  _20
REMARK    8  A    between atoms: _20  and  _21
REMARK    9  A    between atoms: _20  and  _23
REMARK   10  A    between atoms: _23  and  _24
REMARK   11  A    between atoms: _27  and  _29
REMARK   12  A    between atoms: _29  and  _30
REMARK   13  A    between atoms: _29  and  _32
REMARK   14  A    between atoms: _32  and  _33
REMARK   15  A    between atoms: _36  and  _38
REMARK   16  A    between atoms: _38  and  _39
REMARK   17  A    between atoms: _38  and  _41
REMARK   18  A    between atoms: _41  and  _42
REMARK   19  A    between atoms: _45  and  _47
REMARK   20  A    between atoms: _47  and  _48
REMARK   21  A    between atoms: _47  and  _50
REMARK   22  A    between atoms: _50  and  _51
REMARK   23  A    between atoms: _54  and  _56
REMARK   24  A    between atoms: _56  and  _57
REMARK   25  A    between atoms: _59  and  _61
REMARK   26  A    between atoms: _61  and  _62
REMARK   27  A    between atoms: _65  and  _67
REMARK   28  A    between atoms: _67  and  _68
REMARK   29  A    between atoms: _67  and  _70
REMARK   30  A    between atoms: _70  and  _71
REMARK   31  A    between atoms: _74  and  _76
REMARK   32  A    between atoms: _76  and  _77
REMARK   33  A    between atoms: _76  and  _79
REMARK   34  A    between atoms: _79  and  _80
REMARK   35  A    between atoms: _83  and  _85
REMARK   36  A    between atoms: _85  and  _86
REMARK   37  A    between atoms: _85  and  _88
REMARK   38  A    between atoms: _88  and  _89
REMARK   39  A    between atoms: _92  and  _94
REMARK   40  A    between atoms: _94  and  _95
REMARK   41  A    between atoms: _94  and  _97
REMARK   42  A    between atoms: _97  and  _98
REMARK   43  A    between atoms: _101  and  _103
REMARK   44  A    between atoms: _103  and  _104
REMARK   45  A    between atoms: _103  and  _106
REMARK   46  A    between atoms: _106  and  _107
REMARK   47  A    between atoms: _107  and  _108
REMARK   48  A    between atoms: _108  and  _109
REMARK   49  A    between atoms: _109  and  _110
REMARK   50  A    between atoms: _114  and  _116
REMARK   51  A    between atoms: _116  and  _117
REMARK   52  A    between atoms: _116  and  _119
REMARK   53  A    between atoms: _122  and  _124
REMARK   54  A    between atoms: _124  and  _125
REMARK   55  A    between atoms: _124  and  _127
REMARK   56  A    between atoms: _130  and  _132
REMARK   57  A    between atoms: _132  and  _133
REMARK   58  A    between atoms: _135  and  _137
REMARK   59  A    between atoms: _137  and  _138
REMARK   60  A    between atoms: _140  and  _142
REMARK   61  A    between atoms: _142  and  _143
REMARK   62  A    between atoms: _142  and  _145
REMARK   63  A    between atoms: _145  and  _146
REMARK   64  A    between atoms: _149  and  _151
REMARK   65  A    between atoms: _151  and  _152
REMARK   66  A    between atoms: _154  and  _156
REMARK   67  A    between atoms: _156  and  _157
REMARK   68  A    between atoms: _159  and  _161
REMARK   69  A    between atoms: _161  and  _162
REMARK   70  A    between atoms: _161  and  _164
REMARK   71  A    between atoms: _164  and  _165
REMARK   72  A    between atoms: _171  and  _173
REMARK   73  A    between atoms: _173  and  _174
REMARK   74  A    between atoms: _173  and  _176
REMARK   75  A    between atoms: _176  and  _177
REMARK   76  A    between atoms: _177  and  _178
REMARK   77  A    between atoms: _180  and  _182
REMARK   78  A    between atoms: _182  and  _183
REMARK   79  A    between atoms: _182  and  _185
REMARK   80  A    between atoms: _185  and  _186
REMARK   81  A    between atoms: _189  and  _191
REMARK   82  A    between atoms: _191  and  _192
REMARK   83  A    between atoms: _191  and  _194
REMARK   84  A    between atoms: _194  and  _195
REMARK   85  A    between atoms: _199  and  _200
REMARK   86  A    between atoms: _205  and  _207
REMARK   87  A    between atoms: _207  and  _208
REMARK   88  A    between atoms: _211  and  _213
REMARK   89  A    between atoms: _213  and  _214
REMARK   90  A    between atoms: _213  and  _216
REMARK   91  A    between atoms: _216  and  _217
REMARK   92  A    between atoms: _222  and  _224
REMARK   93  A    between atoms: _224  and  _225
REMARK   94  A    between atoms: _224  and  _227
REMARK   95  A    between atoms: _227  and  _228
REMARK   96  A    between atoms: _231  and  _233
REMARK   97  A    between atoms: _233  and  _234
REMARK   98  A    between atoms: _233  and  _236
REMARK   99  A    between atoms: _236  and  _237
REMARK  100  A    between atoms: _240  and  _242
REMARK  101  A    between atoms: _242  and  _243
REMARK  102  A    between atoms: _245  and  _247
REMARK  103  A    between atoms: _247  and  _248
REMARK  104  A    between atoms: _247  and  _250
REMARK  105  A    between atoms: _250  and  _251
REMARK  106  A    between atoms: _251  and  _252
REMARK  107  A    between atoms: _252  and  _253
REMARK  108  A    between atoms: _262  and  _264
REMARK  109  A    between atoms: _264  and  _265
REMARK  110  A    between atoms: _264  and  _267
REMARK  111  A    between atoms: _267  and  _268
REMARK  112  A    between atoms: _273  and  _275
REMARK  113  A    between atoms: _275  and  _276
REMARK  114  A    between atoms: _275  and  _278
REMARK  115  A    between atoms: _278  and  _279
REMARK  116  A    between atoms: _279  and  _280
REMARK  117  A    between atoms: _280  and  _281
REMARK  118  A    between atoms: _290  and  _292
REMARK  119  A    between atoms: _292  and  _293
REMARK  120  A    between atoms: _292  and  _295
REMARK  121  A    between atoms: _295  and  _296
REMARK  122  A    between atoms: _302  and  _304
REMARK  123  A    between atoms: _304  and  _305
REMARK  124  A    between atoms: _304  and  _307
REMARK  125  A    between atoms: _307  and  _308
REMARK  126  A    between atoms: _311  and  _313
REMARK  127  A    between atoms: _313  and  _314
REMARK  128  A    between atoms: _313  and  _316
REMARK  129  A    between atoms: _316  and  _317
REMARK  130  A    between atoms: _320  and  _322
REMARK  131  A    between atoms: _322  and  _323
REMARK  132  A    between atoms: _322  and  _325
REMARK  133  A    between atoms: _325  and  _326
REMARK  134  A    between atoms: _329  and  _331
REMARK  135  A    between atoms: _331  and  _332
REMARK  136  A    between atoms: _331  and  _334
REMARK  137  A    between atoms: _334  and  _335
REMARK  138  A    between atoms: _338  and  _340
REMARK  139  A    between atoms: _340  and  _341
REMARK  140  A    between atoms: _343  and  _345
REMARK  141  A    between atoms: _345  and  _346
REMARK  142  A    between atoms: _349  and  _351
REMARK  143  A    between atoms: _351  and  _352
REMARK  144  A    between atoms: _351  and  _354
REMARK  145  A    between atoms: _354  and  _355
REMARK  146  A    between atoms: _358  and  _360
REMARK  147  A    between atoms: _360  and  _361
REMARK  148  A    between atoms: _360  and  _363
REMARK  149  A    between atoms: _363  and  _364
REMARK  150  A    between atoms: _367  and  _369
REMARK  151  A    between atoms: _369  and  _370
REMARK  152  A    between atoms: _369  and  _372
REMARK  153  A    between atoms: _372  and  _373
REMARK  154  A    between atoms: _376  and  _378
REMARK  155  A    between atoms: _378  and  _379
REMARK  156  A    between atoms: _378  and  _381
REMARK  157  A    between atoms: _381  and  _382
REMARK  158  A    between atoms: _385  and  _387
REMARK  159  A    between atoms: _387  and  _388
REMARK  160  A    between atoms: _387  and  _390
REMARK  161  A    between atoms: _390  and  _391
REMARK  162  A    between atoms: _391  and  _392
REMARK  163  A    between atoms: _395  and  _397
REMARK  164  A    between atoms: _397  and  _398
REMARK  165  A    between atoms: _397  and  _400
REMARK  166  A    between atoms: _400  and  _401
REMARK  167  A    between atoms: _401  and  _402
REMARK  168  A    between atoms: _402  and  _403
REMARK  169  A    between atoms: _403  and  _404
REMARK  170  A    between atoms: _408  and  _410
REMARK  171  A    between atoms: _410  and  _411
REMARK  172  A    between atoms: _410  and  _413
REMARK  173  A    between atoms: _416  and  _418
REMARK  174  A    between atoms: _418  and  _419
REMARK  175  A    between atoms: _418  and  _421
REMARK  176  A    between atoms: _424  and  _426
REMARK  177  A    between atoms: _426  and  _427
REMARK  178  A    between atoms: _429  and  _431
REMARK  179  A    between atoms: _431  and  _432
REMARK  180  A    between atoms: _434  and  _436
REMARK  181  A    between atoms: _436  and  _437
REMARK  182  A    between atoms: _436  and  _439
REMARK  183  A    between atoms: _439  and  _440
REMARK  184  A    between atoms: _443  and  _445
REMARK  185  A    between atoms: _445  and  _446
REMARK  186  A    between atoms: _448  and  _450
REMARK  187  A    between atoms: _450  and  _451
REMARK  188  A    between atoms: _453  and  _455
REMARK  189  A    between atoms: _455  and  _456
REMARK  190  A    between atoms: _455  and  _458
REMARK  191  A    between atoms: _458  and  _459
REMARK  192  A    between atoms: _459  and  _460
REMARK  193  A    between atoms: _462  and  _464
REMARK  194  A    between atoms: _464  and  _465
REMARK  195  A    between atoms: _464  and  _467
REMARK  196  A    between atoms: _470  and  _472
REMARK  197  A    between atoms: _472  and  _473
REMARK  198  A    between atoms: _472  and  _475
REMARK  199  A    between atoms: _475  and  _476
REMARK  200  A    between atoms: _480  and  _481
REMARK  201  A    between atoms: _486  and  _488
REMARK  202  A    between atoms: _488  and  _489
REMARK  203  A    between atoms: _488  and  _491
REMARK  204  A    between atoms: _491  and  _492
REMARK  205  A    between atoms: _496  and  _497
REMARK  206  A    between atoms: _502  and  _504
REMARK  207  A    between atoms: _504  and  _505
REMARK  208  A    between atoms: _508  and  _510
REMARK  209  A    between atoms: _510  and  _511
REMARK  210  A    between atoms: _510  and  _513
REMARK  211  A    between atoms: _513  and  _514
REMARK  212  A    between atoms: _519  and  _521
REMARK  213  A    between atoms: _521  and  _522
REMARK  214  A    between atoms: _521  and  _524
REMARK  215  A    between atoms: _524  and  _525
REMARK  216  A    between atoms: _528  and  _530
REMARK  217  A    between atoms: _530  and  _531
REMARK  218  A    between atoms: _530  and  _533
REMARK  219  A    between atoms: _533  and  _534
REMARK  220  A    between atoms: _537  and  _539
REMARK  221  A    between atoms: _539  and  _540
REMARK  222  A    between atoms: _542  and  _544
REMARK  223  A    between atoms: _544  and  _545
REMARK  224  A    between atoms: _544  and  _547
REMARK  225  A    between atoms: _547  and  _548
REMARK  226  A    between atoms: _548  and  _549
REMARK  227  A    between atoms: _549  and  _550
REMARK  228  A    between atoms: _559  and  _561
REMARK  229  A    between atoms: _561  and  _562
REMARK  230  A    between atoms: _561  and  _564
REMARK  231  A    between atoms: _564  and  _565
REMARK                            x       y       z     vdW  Elec       q    Type
REMARK                         _______ _______ _______ _____ _____    ______ ____
ROOT
ATOM      1  C   GLY A   5      -8.052  56.119   6.843  0.00  0.00    +0.243 C 
ATOM      2  N   ALA A   6      -7.705  55.267   7.814  0.00  0.00    -0.297 N 
ATOM      3  H   ALA A   6      -6.752  54.851   7.790  0.00  0.00    +0.150 HD
ATOM      4  O   GLY A   5      -9.118  56.740   6.838  0.00  0.00    -0.273 OA
ENDROOT
BRANCH   2   5
ATOM      5  CA  ALA A   6      -8.598  54.894   8.904  0.00  0.00    +0.149 C 
ATOM      6  CB  ALA A   6      -8.778  53.375   8.937  0.00  0.00    +0.031 C 
BRANCH   5   7
ATOM      7  C   ALA A   6      -8.044  55.400  10.243  0.00  0.00    +0.241 C 
ATOM      8  N   ASP A   7      -8.861  56.126  11.013  0.00  0.00    -0.297 N 
ATOM      9  H   ASP A   7      -9.823  56.342  10.681  0.00  0.00    +0.150 HD
ATOM     10  O   ALA A   6      -6.885  55.144  10.575  0.00  0.00    -0.273 OA
BRANCH   8  11
ATOM     11  CA  ASP A   7      -8.418  56.619  12.316  0.00  0.00    +0.160 C 
BRANCH  11  12
ATOM     12  C   ASP A   7      -8.334  55.431  13.281  0.00  0.00    +0.241 C 
ATOM     13  O   ASP A   7      -7.431  55.349  14.121  0.00  0.00    -0.273 OA
ATOM     14  N   ASP A   8      -9.280  54.515  13.111  0.00  0.00    -0.297 N 
ATOM     15  H   ASP A   8      -9.828  54.535  12.228  0.00  0.00    +0.150 HD
BRANCH  14  16
ATOM     16  CA  ASP A   8      -9.592  53.491  14.083  0.00  0.00    +0.160 C 
BRANCH  16  17
ATOM     17  C   ASP A   8      -9.546  52.110  13.447  0.00  0.00    +0.241 C 
ATOM     18  N   THR A   9      -9.381  51.113  14.306  0.00  0.00    -0.295 N 
ATOM     19  H   THR A   9      -9.321  51.339  15.319  0.00  0.00    +0.150 HD
ATOM     20  O   ASP A   8      -9.664  51.957  12.233  0.00  0.00    -0.273 OA
BRANCH  18  21
ATOM     21  CA  THR A   9      -9.280  49.728  13.903  0.00  0.00    +0.176 C 
BRANCH  21  22
ATOM     22  C   THR A   9     -10.662  49.147  14.010  0.00  0.00    +0.243 C 
ATOM     23  O   THR A   9     -11.334  49.330  15.024  0.00  0.00    -0.273 OA
ATOM     24  N   ILE A  10     -11.096  48.461  12.961  0.00  0.00    -0.298 N 
ATOM     25  H   ILE A  10     -10.486  48.377  12.123  0.00  0.00    +0.150 HD
BRANCH  24  26
ATOM     26  CA  ILE A  10     -12.408  47.821  12.952  0.00  0.00    +0.137 C 
BRANCH  26  27
ATOM     27  CB  ILE A  10     -13.397  48.547  12.023  0.00  0.00    +0.026 C 
ATOM     28  CG2 ILE A  10     -14.812  48.015  12.246  0.00  0.00    +0.002 C 
BRANCH  27  29
ATOM     29  CG1 ILE A  10     -13.282  50.064  12.198  0.00  0.00    +0.002 C 
ATOM     30  CD1 ILE A  10     -14.186  50.855  11.289  0.00  0.00    +0.000 C 
ENDBRANCH  27  29
ENDBRANCH  26  27
BRANCH  26  31
ATOM     31  C   ILE A  10     -12.340  46.378  12.471  0.00  0.00    +0.227 C 
ATOM     32  O   ILE A  10     -11.739  46.094  11.444  0.00  0.00    -0.286 OA
ENDBRANCH  26  31
ENDBRANCH  24  26
ENDBRANCH  21  22
BRANCH  21  33
ATOM     33  CB  THR A   9      -8.245  48.988  14.804  0.00  0.00    +0.137 C 
ATOM     34  CG2 THR A   9      -8.223  47.476  14.558  0.00  0.00    +0.034 C 
BRANCH  33  35
ATOM     35  OG1 THR A   9      -6.947  49.500  14.512  0.00  0.00    -0.382 OA
ATOM     36  HG1 THR A   9      -6.927  50.472  14.700  0.00  0.00    +0.210 HD
ENDBRANCH  33  35
ENDBRANCH  21  33
ENDBRANCH  18  21
ENDBRANCH  16  17
BRANCH  16  37
ATOM     37  CB  ASP A   8     -11.004  53.711  14.663  0.00  0.00    +0.143 C 
BRANCH  37  38
ATOM     38  CG  ASP A   8     -11.154  55.039  15.379  0.00  0.00    +0.367 C 
ATOM     39  OD2 ASP A   8     -10.145  55.639  15.799  0.00  0.00    -0.246 OA
ATOM     40  OD1 ASP A   8     -12.310  55.475  15.525  0.00  0.00    -0.246 OA
ENDBRANCH  37  38
ENDBRANCH  16  37
ENDBRANCH  14  16
ENDBRANCH  11  12
BRANCH  11  41
ATOM     41  CB  ASP A   7      -9.390  57.644  12.897  0.00  0.00    +0.143 C 
BRANCH  41  42
ATOM     42  CG  ASP A   7      -9.555  58.890  12.038  0.00  0.00    +0.367 C 
ATOM     43  OD2 ASP A   7     -10.577  59.576  12.241  0.00  0.00    -0.246 OA
ATOM     44  OD1 ASP A   7      -8.699  59.200  11.181  0.00  0.00    -0.246 OA
ENDBRANCH  41  42
ENDBRANCH  11  41
ENDBRANCH   8  11
ENDBRANCH   5   7
ENDBRANCH   2   5
BRANCH   1  45
ATOM     45  CA  GLY A   5      -7.052  56.315   5.709  0.00  0.00    +0.176 C 
BRANCH  45  48
ATOM     46  C   THR A   4      -4.805  55.768   6.506  0.00  0.00    +0.243 C 
ATOM     47  O   THR A   4      -4.719  56.805   7.166  0.00  0.00    -0.273 OA
ATOM     48  N   GLY A   5      -5.877  55.458   5.765  0.00  0.00    -0.295 N 
ATOM     49  H   GLY A   5      -5.869  54.577   5.212  0.00  0.00    +0.150 HD
BRANCH  46  50
ATOM     50  CA  THR A   4      -3.649  54.754   6.538  0.00  0.00    +0.176 C 
BRANCH  50  53
ATOM     51  C   ASP A   3      -4.900  52.663   6.938  0.00  0.00    +0.241 C 
ATOM     52  O   ASP A   3      -5.390  53.059   8.003  0.00  0.00    -0.273 OA
ATOM     53  N   THR A   4      -4.057  53.385   6.188  0.00  0.00    -0.295 N 
ATOM     54  H   THR A   4      -3.674  52.959   5.320  0.00  0.00    +0.150 HD
BRANCH  51  55
ATOM     55  CA  ASP A   3      -5.238  51.279   6.395  0.00  0.00    +0.160 C 
BRANCH  55  57
ATOM     56  C   LEU A   2      -3.666  49.473   6.207  0.00  0.00    +0.241 C 
ATOM     57  N   ASP A   3      -4.371  50.274   6.990  0.00  0.00    -0.297 N 
ATOM     58  H   ASP A   3      -4.305  50.185   8.024  0.00  0.00    +0.150 HD
ATOM     59  O   LEU A   2      -3.527  49.677   5.007  0.00  0.00    -0.273 OA
BRANCH  56  60
ATOM     60  CA  LEU A   2      -3.099  48.234   6.857  0.00  0.00    +0.149 C 
BRANCH  60  63
ATOM     61  C   LEU A   1      -5.089  46.833   6.700  0.00  0.00    +0.238 C 
ATOM     62  O   LEU A   1      -5.582  47.349   7.693  0.00  0.00    -0.274 OA
ATOM     63  N   LEU A   2      -3.847  47.101   6.305  0.00  0.00    -0.297 N 
ATOM     64  H   LEU A   2      -3.398  46.494   5.590  0.00  0.00    +0.150 HD
BRANCH  61  65
ATOM     65  CA  LEU A   1      -5.855  45.749   5.926  0.00  0.00    +0.145 C 
BRANCH  65  66
ATOM     66  N   LEU A   1      -6.389  44.825   6.890  0.00  0.00    -0.238 NA
ATOM     67  H   LEU A   1      -7.337  44.993   7.284  0.00  0.00    +0.142 HD
ENDBRANCH  65  66
BRANCH  65  68
ATOM     68  CB  LEU A   1      -7.041  46.289   5.108  0.00  0.00    +0.026 C 
BRANCH  68  69
ATOM     69  CG  LEU A   1      -6.989  46.914   3.717  0.00  0.00    +0.002 C 
ATOM     70  CD2 LEU A   1      -8.384  47.415   3.358  0.00  0.00    +0.000 C 
ATOM     71  CD1 LEU A   1      -6.483  45.935   2.671  0.00  0.00    +0.000 C 
ENDBRANCH  68  69
ENDBRANCH  65  68
ENDBRANCH  61  65
ENDBRANCH  60  63
BRANCH  60  72
ATOM     72  CB  LEU A   2      -1.596  48.115   6.592  0.00  0.00    +0.029 C 
BRANCH  72  73
ATOM     73  CG  LEU A   2      -0.875  46.880   7.157  0.00  0.00    +0.002 C 
ATOM     74  CD2 LEU A   2      -1.084  46.731   8.667  0.00  0.00    +0.000 C 
ATOM     75  CD1 LEU A   2       0.611  46.961   6.797  0.00  0.00    +0.000 C 
ENDBRANCH  72  73
ENDBRANCH  60  72
ENDBRANCH  56  60
ENDBRANCH  55  57
BRANCH  55  76
ATOM     76  CB  ASP A   3      -6.711  50.875   6.612  0.00  0.00    +0.143 C 
BRANCH  76  77
ATOM     77  CG  ASP A   3      -7.697  51.775   5.873  0.00  0.00    +0.367 C 
ATOM     78  OD2 ASP A   3      -8.893  51.443   5.854  0.00  0.00    -0.246 OA
ATOM     79  OD1 ASP A   3      -7.293  52.815   5.322  0.00  0.00    -0.246 OA
ENDBRANCH  76  77
ENDBRANCH  55  76
ENDBRANCH  51  55
ENDBRANCH  50  53
BRANCH  50  80
ATOM     80  CB  THR A   4      -2.530  55.280   5.624  0.00  0.00    +0.137 C 
ATOM     81  CG2 THR A   4      -1.216  54.464   5.806  0.00  0.00    +0.034 C 
BRANCH  80  82
ATOM     82  OG1 THR A   4      -2.967  55.242   4.255  0.00  0.00    -0.382 OA
ATOM     83  HG1 THR A   4      -3.771  55.809   4.151  0.00  0.00    +0.210 HD
ENDBRANCH  80  82
ENDBRANCH  50  80
ENDBRANCH  46  50
ENDBRANCH  45  48
ENDBRANCH   1  45
TORSDOF 36
REMARK  Name = ../refined-set-2016/4m8y/4m8y_pocket.pdb
REMARK  231 active torsions:
REMARK  status: ('A' for Active; 'I' for Inactive)
REMARK    1  A    between atoms: _1  and  _3
REMARK    2  A    between atoms: _3  and  _4
REMARK    3  A    between atoms: _3  and  _6
REMARK    4  A    between atoms: _6  and  _7
REMARK    5  A    between atoms: _7  and  _8
REMARK    6  A    between atoms: _8  and  _9
REMARK    7  A    between atoms: _18  and  _20
REMARK    8  A    between atoms: _20  and  _21
REMARK    9  A    between atoms: _20  and  _23
REMARK   10  A    between atoms: _23  and  _24
REMARK   11  A    between atoms: _27  and  _29
REMARK   12  A    between atoms: _29  and  _30
REMARK   13  A    between atoms: _29  and  _32
REMARK   14  A    between atoms: _32  and  _33
REMARK   15  A    between atoms: _36  and  _38
REMARK   16  A    between atoms: _38  and  _39
REMARK   17  A    between atoms: _38  and  _41
REMARK   18  A    between atoms: _41  and  _42
REMARK   19  A    between atoms: _45  and  _47
REMARK   20  A    between atoms: _47  and  _48
REMARK   21  A    between atoms: _47  and  _50
REMARK   22  A    between atoms: _50  and  _51
REMARK   23  A    between atoms: _54  and  _56
REMARK   24  A    between atoms: _56  and  _57
REMARK   25  A    between atoms: _59  and  _61
REMARK   26  A    between atoms: _61  and  _62
REMARK   27  A    between atoms: _65  and  _67
REMARK   28  A    between atoms: _67  and  _68
REMARK   29  A    between atoms: _67  and  _70
REMARK   30  A    between atoms: _70  and  _71
REMARK   31  A    between atoms: _74  and  _76
REMARK   32  A    between atoms: _76  and  _77
REMARK   33  A    between atoms: _76  and  _79
REMARK   34  A    between atoms: _79  and  _80
REMARK   35  A    between atoms: _83  and  _85
REMARK   36  A    between atoms: _85  and  _86
REMARK   37  A    between atoms: _85  and  _88
REMARK   38  A    between atoms: _88  and  _89
REMARK   39  A    between atoms: _92  and  _94
REMARK   40  A    between atoms: _94  and  _95
REMARK   41  A    between atoms: _94  and  _97
REMARK   42  A    between atoms: _97  and  _98
REMARK   43  A    between atoms: _101  and  _103
REMARK   44  A    between atoms: _103  and  _104
REMARK   45  A    between atoms: _103  and  _106
REMARK   46  A    between atoms: _106  and  _107
REMARK   47  A    between atoms: _107  and  _108
REMARK   48  A    between atoms: _108  and  _109
REMARK   49  A    between atoms: _109  and  _110
REMARK   50  A    between atoms: _114  and  _116
REMARK   51  A    between atoms: _116  and  _117
REMARK   52  A    between atoms: _116  and  _119
REMARK   53  A    between atoms: _122  and  _124
REMARK   54  A    between atoms: _124  and  _125
REMARK   55  A    between atoms: _124  and  _127
REMARK   56  A    between atoms: _130  and  _132
REMARK   57  A    between atoms: _132  and  _133
REMARK   58  A    between atoms: _135  and  _137
REMARK   59  A    between atoms: _137  and  _138
REMARK   60  A    between atoms: _140  and  _142
REMARK   61  A    between atoms: _142  and  _143
REMARK   62  A    between atoms: _142  and  _145
REMARK   63  A    between atoms: _145  and  _146
REMARK   64  A    between atoms: _149  and  _151
REMARK   65  A    between atoms: _151  and  _152
REMARK   66  A    between atoms: _154  and  _156
REMARK   67  A    between atoms: _156  and  _157
REMARK   68  A    between atoms: _159  and  _161
REMARK   69  A    between atoms: _161  and  _162
REMARK   70  A    between atoms: _161  and  _164
REMARK   71  A    between atoms: _164  and  _165
REMARK   72  A    between atoms: _171  and  _173
REMARK   73  A    between atoms: _173  and  _174
REMARK   74  A    between atoms: _173  and  _176
REMARK   75  A    between atoms: _176  and  _177
REMARK   76  A    between atoms: _177  and  _178
REMARK   77  A    between atoms: _180  and  _182
REMARK   78  A    between atoms: _182  and  _183
REMARK   79  A    between atoms: _182  and  _185
REMARK   80  A    between atoms: _185  and  _186
REMARK   81  A    between atoms: _189  and  _191
REMARK   82  A    between atoms: _191  and  _192
REMARK   83  A    between atoms: _191  and  _194
REMARK   84  A    between atoms: _194  and  _195
REMARK   85  A    between atoms: _199  and  _200
REMARK   86  A    between atoms: _205  and  _207
REMARK   87  A    between atoms: _207  and  _208
REMARK   88  A    between atoms: _211  and  _213
REMARK   89  A    between atoms: _213  and  _214
REMARK   90  A    between atoms: _213  and  _216
REMARK   91  A    between atoms: _216  and  _217
REMARK   92  A    between atoms: _222  and  _224
REMARK   93  A    between atoms: _224  and  _225
REMARK   94  A    between atoms: _224  and  _227
REMARK   95  A    between atoms: _227  and  _228
REMARK   96  A    between atoms: _231  and  _233
REMARK   97  A    between atoms: _233  and  _234
REMARK   98  A    between atoms: _233  and  _236
REMARK   99  A    between atoms: _236  and  _237
REMARK  100  A    between atoms: _240  and  _242
REMARK  101  A    between atoms: _242  and  _243
REMARK  102  A    between atoms: _245  and  _247
REMARK  103  A    between atoms: _247  and  _248
REMARK  104  A    between atoms: _247  and  _250
REMARK  105  A    between atoms: _250  and  _251
REMARK  106  A    between atoms: _251  and  _252
REMARK  107  A    between atoms: _252  and  _253
REMARK  108  A    between atoms: _262  and  _264
REMARK  109  A    between atoms: _264  and  _265
REMARK  110  A    between atoms: _264  and  _267
REMARK  111  A    between atoms: _267  and  _268
REMARK  112  A    between atoms: _273  and  _275
REMARK  113  A    between atoms: _275  and  _276
REMARK  114  A    between atoms: _275  and  _278
REMARK  115  A    between atoms: _278  and  _279
REMARK  116  A    between atoms: _279  and  _280
REMARK  117  A    between atoms: _280  and  _281
REMARK  118  A    between atoms: _290  and  _292
REMARK  119  A    between atoms: _292  and  _293
REMARK  120  A    between atoms: _292  and  _295
REMARK  121  A    between atoms: _295  and  _296
REMARK  122  A    between atoms: _302  and  _304
REMARK  123  A    between atoms: _304  and  _305
REMARK  124  A    between atoms: _304  and  _307
REMARK  125  A    between atoms: _307  and  _308
REMARK  126  A    between atoms: _311  and  _313
REMARK  127  A    between atoms: _313  and  _314
REMARK  128  A    between atoms: _313  and  _316
REMARK  129  A    between atoms: _316  and  _317
REMARK  130  A    between atoms: _320  and  _322
REMARK  131  A    between atoms: _322  and  _323
REMARK  132  A    between atoms: _322  and  _325
REMARK  133  A    between atoms: _325  and  _326
REMARK  134  A    between atoms: _329  and  _331
REMARK  135  A    between atoms: _331  and  _332
REMARK  136  A    between atoms: _331  and  _334
REMARK  137  A    between atoms: _334  and  _335
REMARK  138  A    between atoms: _338  and  _340
REMARK  139  A    between atoms: _340  and  _341
REMARK  140  A    between atoms: _343  and  _345
REMARK  141  A    between atoms: _345  and  _346
REMARK  142  A    between atoms: _349  and  _351
REMARK  143  A    between atoms: _351  and  _352
REMARK  144  A    between atoms: _351  and  _354
REMARK  145  A    between atoms: _354  and  _355
REMARK  146  A    between atoms: _358  and  _360
REMARK  147  A    between atoms: _360  and  _361
REMARK  148  A    between atoms: _360  and  _363
REMARK  149  A    between atoms: _363  and  _364
REMARK  150  A    between atoms: _367  and  _369
REMARK  151  A    between atoms: _369  and  _370
REMARK  152  A    between atoms: _369  and  _372
REMARK  153  A    between atoms: _372  and  _373
REMARK  154  A    between atoms: _376  and  _378
REMARK  155  A    between atoms: _378  and  _379
REMARK  156  A    between atoms: _378  and  _381
REMARK  157  A    between atoms: _381  and  _382
REMARK  158  A    between atoms: _385  and  _387
REMARK  159  A    between atoms: _387  and  _388
REMARK  160  A    between atoms: _387  and  _390
REMARK  161  A    between atoms: _390  and  _391
REMARK  162  A    between atoms: _391  and  _392
REMARK  163  A    between atoms: _395  and  _397
REMARK  164  A    between atoms: _397  and  _398
REMARK  165  A    between atoms: _397  and  _400
REMARK  166  A    between atoms: _400  and  _401
REMARK  167  A    between atoms: _401  and  _402
REMARK  168  A    between atoms: _402  and  _403
REMARK  169  A    between atoms: _403  and  _404
REMARK  170  A    between atoms: _408  and  _410
REMARK  171  A    between atoms: _410  and  _411
REMARK  172  A    between atoms: _410  and  _413
REMARK  173  A    between atoms: _416  and  _418
REMARK  174  A    between atoms: _418  and  _419
REMARK  175  A    between atoms: _418  and  _421
REMARK  176  A    between atoms: _424  and  _426
REMARK  177  A    between atoms: _426  and  _427
REMARK  178  A    between atoms: _429  and  _431
REMARK  179  A    between atoms: _431  and  _432
REMARK  180  A    between atoms: _434  and  _436
REMARK  181  A    between atoms: _436  and  _437
REMARK  182  A    between atoms: _436  and  _439
REMARK  183  A    between atoms: _439  and  _440
REMARK  184  A    between atoms: _443  and  _445
REMARK  185  A    between atoms: _445  and  _446
REMARK  186  A    between atoms: _448  and  _450
REMARK  187  A    between atoms: _450  and  _451
REMARK  188  A    between atoms: _453  and  _455
REMARK  189  A    between atoms: _455  and  _456
REMARK  190  A    between atoms: _455  and  _458
REMARK  191  A    between atoms: _458  and  _459
REMARK  192  A    between atoms: _459  and  _460
REMARK  193  A    between atoms: _462  and  _464
REMARK  194  A    between atoms: _464  and  _465
REMARK  195  A    between atoms: _464  and  _467
REMARK  196  A    between atoms: _470  and  _472
REMARK  197  A    between atoms: _472  and  _473
REMARK  198  A    between atoms: _472  and  _475
REMARK  199  A    between atoms: _475  and  _476
REMARK  200  A    between atoms: _480  and  _481
REMARK  201  A    between atoms: _486  and  _488
REMARK  202  A    between atoms: _488  and  _489
REMARK  203  A    between atoms: _488  and  _491
REMARK  204  A    between atoms: _491  and  _492
REMARK  205  A    between atoms: _496  and  _497
REMARK  206  A    between atoms: _502  and  _504
REMARK  207  A    between atoms: _504  and  _505
REMARK  208  A    between atoms: _508  and  _510
REMARK  209  A    between atoms: _510  and  _511
REMARK  210  A    between atoms: _510  and  _513
REMARK  211  A    between atoms: _513  and  _514
REMARK  212  A    between atoms: _519  and  _521
REMARK  213  A    between atoms: _521  and  _522
REMARK  214  A    between atoms: _521  and  _524
REMARK  215  A    between atoms: _524  and  _525
REMARK  216  A    between atoms: _528  and  _530
REMARK  217  A    between atoms: _530  and  _531
REMARK  218  A    between atoms: _530  and  _533
REMARK  219  A    between atoms: _533  and  _534
REMARK  220  A    between atoms: _537  and  _539
REMARK  221  A    between atoms: _539  and  _540
REMARK  222  A    between atoms: _542  and  _544
REMARK  223  A    between atoms: _544  and  _545
REMARK  224  A    between atoms: _544  and  _547
REMARK  225  A    between atoms: _547  and  _548
REMARK  226  A    between atoms: _548  and  _549
REMARK  227  A    between atoms: _549  and  _550
REMARK  228  A    between atoms: _559  and  _561
REMARK  229  A    between atoms: _561  and  _562
REMARK  230  A    between atoms: _561  and  _564
REMARK  231  A    between atoms: _564  and  _565
REMARK                            x       y       z     vdW  Elec       q    Type
REMARK                         _______ _______ _______ _____ _____    ______ ____
ROOT
ATOM      1  CA  GLU A   1     -15.672  41.921  11.203  0.00  0.00    +0.134 C 
ENDROOT
BRANCH   1   2
ATOM      2  N   GLU A   1     -14.420  42.537  11.661  0.00  0.00    -0.239 NA
ATOM      3  H   GLU A   1     -13.521  42.160  11.299  0.00  0.00    +0.142 HD
ENDBRANCH   1   2
BRANCH   1   4
ATOM      4  C   GLU A   1     -16.653  41.566  12.338  0.00  0.00    +0.224 C 
ATOM      5  O   GLU A   1     -16.259  41.451  13.507  0.00  0.00    -0.287 OA
ENDBRANCH   1   4
BRANCH   1   6
ATOM      6  CB  GLU A   1     -15.398  40.741  10.267  0.00  0.00    +0.037 C 
BRANCH   6   7
ATOM      7  CG  GLU A   1     -14.955  41.216   8.890  0.00  0.00    +0.116 C 
BRANCH   7   8
ATOM      8  CD  GLU A   1     -14.752  40.116   7.855  0.00  0.00    +0.365 C 
ATOM      9  OE2 GLU A   1     -14.935  38.913   8.177  0.00  0.00    -0.246 OA
ATOM     10  OE1 GLU A   1     -14.404  40.472   6.697  0.00  0.00    -0.246 OA
ENDBRANCH   7   8
ENDBRANCH   6   7
ENDBRANCH   1   6
TORSDOF 5
REMARK  Name = ../refined-set-2016/4m8y/4m8y_pocket.pdb
REMARK  231 active torsions:
REMARK  status: ('A' for Active; 'I' for Inactive)
REMARK    1  A    between atoms: _1  and  _3
REMARK    2  A    between atoms: _3  and  _4
REMARK    3  A    between atoms: _3  and  _6
REMARK    4  A    between atoms: _6  and  _7
REMARK    5  A    between atoms: _7  and  _8
REMARK    6  A    between atoms: _8  and  _9
REMARK    7  A    between atoms: _18  and  _20
REMARK    8  A    between atoms: _20  and  _21
REMARK    9  A    between atoms: _20  and  _23
REMARK   10  A    between atoms: _23  and  _24
REMARK   11  A    between atoms: _27  and  _29
REMARK   12  A    between atoms: _29  and  _30
REMARK   13  A    between atoms: _29  and  _32
REMARK   14  A    between atoms: _32  and  _33
REMARK   15  A    between atoms: _36  and  _38
REMARK   16  A    between atoms: _38  and  _39
REMARK   17  A    between atoms: _38  and  _41
REMARK   18  A    between atoms: _41  and  _42
REMARK   19  A    between atoms: _45  and  _47
REMARK   20  A    between atoms: _47  and  _48
REMARK   21  A    between atoms: _47  and  _50
REMARK   22  A    between atoms: _50  and  _51
REMARK   23  A    between atoms: _54  and  _56
REMARK   24  A    between atoms: _56  and  _57
REMARK   25  A    between atoms: _59  and  _61
REMARK   26  A    between atoms: _61  and  _62
REMARK   27  A    between atoms: _65  and  _67
REMARK   28  A    between atoms: _67  and  _68
REMARK   29  A    between atoms: _67  and  _70
REMARK   30  A    between atoms: _70  and  _71
REMARK   31  A    between atoms: _74  and  _76
REMARK   32  A    between atoms: _76  and  _77
REMARK   33  A    between atoms: _76  and  _79
REMARK   34  A    between atoms: _79  and  _80
REMARK   35  A    between atoms: _83  and  _85
REMARK   36  A    between atoms: _85  and  _86
REMARK   37  A    between atoms: _85  and  _88
REMARK   38  A    between atoms: _88  and  _89
REMARK   39  A    between atoms: _92  and  _94
REMARK   40  A    between atoms: _94  and  _95
REMARK   41  A    between atoms: _94  and  _97
REMARK   42  A    between atoms: _97  and  _98
REMARK   43  A    between atoms: _101  and  _103
REMARK   44  A    between atoms: _103  and  _104
REMARK   45  A    between atoms: _103  and  _106
REMARK   46  A    between atoms: _106  and  _107
REMARK   47  A    between atoms: _107  and  _108
REMARK   48  A    between atoms: _108  and  _109
REMARK   49  A    between atoms: _109  and  _110
REMARK   50  A    between atoms: _114  and  _116
REMARK   51  A    between atoms: _116  and  _117
REMARK   52  A    between atoms: _116  and  _119
REMARK   53  A    between atoms: _122  and  _124
REMARK   54  A    between atoms: _124  and  _125
REMARK   55  A    between atoms: _124  and  _127
REMARK   56  A    between atoms: _130  and  _132
REMARK   57  A    between atoms: _132  and  _133
REMARK   58  A    between atoms: _135  and  _137
REMARK   59  A    between atoms: _137  and  _138
REMARK   60  A    between atoms: _140  and  _142
REMARK   61  A    between atoms: _142  and  _143
REMARK   62  A    between atoms: _142  and  _145
REMARK   63  A    between atoms: _145  and  _146
REMARK   64  A    between atoms: _149  and  _151
REMARK   65  A    between atoms: _151  and  _152
REMARK   66  A    between atoms: _154  and  _156
REMARK   67  A    between atoms: _156  and  _157
REMARK   68  A    between atoms: _159  and  _161
REMARK   69  A    between atoms: _161  and  _162
REMARK   70  A    between atoms: _161  and  _164
REMARK   71  A    between atoms: _164  and  _165
REMARK   72  A    between atoms: _171  and  _173
REMARK   73  A    between atoms: _173  and  _174
REMARK   74  A    between atoms: _173  and  _176
REMARK   75  A    between atoms: _176  and  _177
REMARK   76  A    between atoms: _177  and  _178
REMARK   77  A    between atoms: _180  and  _182
REMARK   78  A    between atoms: _182  and  _183
REMARK   79  A    between atoms: _182  and  _185
REMARK   80  A    between atoms: _185  and  _186
REMARK   81  A    between atoms: _189  and  _191
REMARK   82  A    between atoms: _191  and  _192
REMARK   83  A    between atoms: _191  and  _194
REMARK   84  A    between atoms: _194  and  _195
REMARK   85  A    between atoms: _199  and  _200
REMARK   86  A    between atoms: _205  and  _207
REMARK   87  A    between atoms: _207  and  _208
REMARK   88  A    between atoms: _211  and  _213
REMARK   89  A    between atoms: _213  and  _214
REMARK   90  A    between atoms: _213  and  _216
REMARK   91  A    between atoms: _216  and  _217
REMARK   92  A    between atoms: _222  and  _224
REMARK   93  A    between atoms: _224  and  _225
REMARK   94  A    between atoms: _224  and  _227
REMARK   95  A    between atoms: _227  and  _228
REMARK   96  A    between atoms: _231  and  _233
REMARK   97  A    between atoms: _233  and  _234
REMARK   98  A    between atoms: _233  and  _236
REMARK   99  A    between atoms: _236  and  _237
REMARK  100  A    between atoms: _240  and  _242
REMARK  101  A    between atoms: _242  and  _243
REMARK  102  A    between atoms: _245  and  _247
REMARK  103  A    between atoms: _247  and  _248
REMARK  104  A    between atoms: _247  and  _250
REMARK  105  A    between atoms: _250  and  _251
REMARK  106  A    between atoms: _251  and  _252
REMARK  107  A    between atoms: _252  and  _253
REMARK  108  A    between atoms: _262  and  _264
REMARK  109  A    between atoms: _264  and  _265
REMARK  110  A    between atoms: _264  and  _267
REMARK  111  A    between atoms: _267  and  _268
REMARK  112  A    between atoms: _273  and  _275
REMARK  113  A    between atoms: _275  and  _276
REMARK  114  A    between atoms: _275  and  _278
REMARK  115  A    between atoms: _278  and  _279
REMARK  116  A    between atoms: _279  and  _280
REMARK  117  A    between atoms: _280  and  _281
REMARK  118  A    between atoms: _290  and  _292
REMARK  119  A    between atoms: _292  and  _293
REMARK  120  A    between atoms: _292  and  _295
REMARK  121  A    between atoms: _295  and  _296
REMARK  122  A    between atoms: _302  and  _304
REMARK  123  A    between atoms: _304  and  _305
REMARK  124  A    between atoms: _304  and  _307
REMARK  125  A    between atoms: _307  and  _308
REMARK  126  A    between atoms: _311  and  _313
REMARK  127  A    between atoms: _313  and  _314
REMARK  128  A    between atoms: _313  and  _316
REMARK  129  A    between atoms: _316  and  _317
REMARK  130  A    between atoms: _320  and  _322
REMARK  131  A    between atoms: _322  and  _323
REMARK  132  A    between atoms: _322  and  _325
REMARK  133  A    between atoms: _325  and  _326
REMARK  134  A    between atoms: _329  and  _331
REMARK  135  A    between atoms: _331  and  _332
REMARK  136  A    between atoms: _331  and  _334
REMARK  137  A    between atoms: _334  and  _335
REMARK  138  A    between atoms: _338  and  _340
REMARK  139  A    between atoms: _340  and  _341
REMARK  140  A    between atoms: _343  and  _345
REMARK  141  A    between atoms: _345  and  _346
REMARK  142  A    between atoms: _349  and  _351
REMARK  143  A    between atoms: _351  and  _352
REMARK  144  A    between atoms: _351  and  _354
REMARK  145  A    between atoms: _354  and  _355
REMARK  146  A    between atoms: _358  and  _360
REMARK  147  A    between atoms: _360  and  _361
REMARK  148  A    between atoms: _360  and  _363
REMARK  149  A    between atoms: _363  and  _364
REMARK  150  A    between atoms: _367  and  _369
REMARK  151  A    between atoms: _369  and  _370
REMARK  152  A    between atoms: _369  and  _372
REMARK  153  A    between atoms: _372  and  _373
REMARK  154  A    between atoms: _376  and  _378
REMARK  155  A    between atoms: _378  and  _379
REMARK  156  A    between atoms: _378  and  _381
REMARK  157  A    between atoms: _381  and  _382
REMARK  158  A    between atoms: _385  and  _387
REMARK  159  A    between atoms: _387  and  _388
REMARK  160  A    between atoms: _387  and  _390
REMARK  161  A    between atoms: _390  and  _391
REMARK  162  A    between atoms: _391  and  _392
REMARK  163  A    between atoms: _395  and  _397
REMARK  164  A    between atoms: _397  and  _398
REMARK  165  A    between atoms: _397  and  _400
REMARK  166  A    between atoms: _400  and  _401
REMARK  167  A    between atoms: _401  and  _402
REMARK  168  A    between atoms: _402  and  _403
REMARK  169  A    between atoms: _403  and  _404
REMARK  170  A    between atoms: _408  and  _410
REMARK  171  A    between atoms: _410  and  _411
REMARK  172  A    between atoms: _410  and  _413
REMARK  173  A    between atoms: _416  and  _418
REMARK  174  A    between atoms: _418  and  _419
REMARK  175  A    between atoms: _418  and  _421
REMARK  176  A    between atoms: _424  and  _426
REMARK  177  A    between atoms: _426  and  _427
REMARK  178  A    between atoms: _429  and  _431
REMARK  179  A    between atoms: _431  and  _432
REMARK  180  A    between atoms: _434  and  _436
REMARK  181  A    between atoms: _436  and  _437
REMARK  182  A    between atoms: _436  and  _439
REMARK  183  A    between atoms: _439  and  _440
REMARK  184  A    between atoms: _443  and  _445
REMARK  185  A    between atoms: _445  and  _446
REMARK  186  A    between atoms: _448  and  _450
REMARK  187  A    between atoms: _450  and  _451
REMARK  188  A    between atoms: _453  and  _455
REMARK  189  A    between atoms: _455  and  _456
REMARK  190  A    between atoms: _455  and  _458
REMARK  191  A    between atoms: _458  and  _459
REMARK  192  A    between atoms: _459  and  _460
REMARK  193  A    between atoms: _462  and  _464
REMARK  194  A    between atoms: _464  and  _465
REMARK  195  A    between atoms: _464  and  _467
REMARK  196  A    between atoms: _470  and  _472
REMARK  197  A    between atoms: _472  and  _473
REMARK  198  A    between atoms: _472  and  _475
REMARK  199  A    between atoms: _475  and  _476
REMARK  200  A    between atoms: _480  and  _481
REMARK  201  A    between atoms: _486  and  _488
REMARK  202  A    between atoms: _488  and  _489
REMARK  203  A    between atoms: _488  and  _491
REMARK  204  A    between atoms: _491  and  _492
REMARK  205  A    between atoms: _496  and  _497
REMARK  206  A    between atoms: _502  and  _504
REMARK  207  A    between atoms: _504  and  _505
REMARK  208  A    between atoms: _508  and  _510
REMARK  209  A    between atoms: _510  and  _511
REMARK  210  A    between atoms: _510  and  _513
REMARK  211  A    between atoms: _513  and  _514
REMARK  212  A    between atoms: _519  and  _521
REMARK  213  A    between atoms: _521  and  _522
REMARK  214  A    between atoms: _521  and  _524
REMARK  215  A    between atoms: _524  and  _525
REMARK  216  A    between atoms: _528  and  _530
REMARK  217  A    between atoms: _530  and  _531
REMARK  218  A    between atoms: _530  and  _533
REMARK  219  A    between atoms: _533  and  _534
REMARK  220  A    between atoms: _537  and  _539
REMARK  221  A    between atoms: _539  and  _540
REMARK  222  A    between atoms: _542  and  _544
REMARK  223  A    between atoms: _544  and  _545
REMARK  224  A    between atoms: _544  and  _547
REMARK  225  A    between atoms: _547  and  _548
REMARK  226  A    between atoms: _548  and  _549
REMARK  227  A    between atoms: _549  and  _550
REMARK  228  A    between atoms: _559  and  _561
REMARK  229  A    between atoms: _561  and  _562
REMARK  230  A    between atoms: _561  and  _564
REMARK  231  A    between atoms: _564  and  _565
REMARK                            x       y       z     vdW  Elec       q    Type
REMARK                         _______ _______ _______ _____ _____    ______ ____
ROOT
ATOM      1  C   VAL A   3     -18.891  55.518  11.408  0.00  0.00    +0.241 C 
ATOM      2  O   VAL A   3     -19.862  54.958  10.907  0.00  0.00    -0.273 OA
ATOM      3  N   GLY A   4     -18.232  56.502  10.796  0.00  0.00    -0.295 N 
ATOM      4  H   GLY A   4     -17.381  56.901  11.241  0.00  0.00    +0.150 HD
ENDROOT
BRANCH   3   5
ATOM      5  CA  GLY A   4     -18.685  57.031   9.508  0.00  0.00    +0.176 C 
BRANCH   5   6
ATOM      6  C   GLY A   4     -17.702  56.870   8.363  0.00  0.00    +0.243 C 
ATOM      7  O   GLY A   4     -16.485  57.021   8.541  0.00  0.00    -0.273 OA
ATOM      8  N   GLY A   5     -18.226  56.587   7.177  0.00  0.00    -0.295 N 
ATOM      9  H   GLY A   5     -19.260  56.540   7.071  0.00  0.00    +0.150 HD
BRANCH   8  10
ATOM     10  CA  GLY A   5     -17.378  56.342   6.027  0.00  0.00    +0.176 C 
BRANCH  10  11
ATOM     11  C   GLY A   5     -18.088  56.606   4.733  0.00  0.00    +0.243 C 
ATOM     12  O   GLY A   5     -19.077  57.349   4.700  0.00  0.00    -0.273 OA
ATOM     13  N   ILE A   6     -17.574  55.989   3.667  0.00  0.00    -0.297 N 
ATOM     14  H   ILE A   6     -16.694  55.447   3.785  0.00  0.00    +0.150 HD
BRANCH  13  15
ATOM     15  CA  ILE A   6     -18.185  56.038   2.346  0.00  0.00    +0.149 C 
BRANCH  15  16
ATOM     16  C   ILE A   6     -19.462  55.183   2.371  0.00  0.00    +0.241 C 
ATOM     17  O   ILE A   6     -19.423  53.993   2.657  0.00  0.00    -0.273 OA
ATOM     18  N   GLY A   7     -20.602  55.782   2.104  0.00  0.00    -0.295 N 
ATOM     19  H   GLY A   7     -20.622  56.781   1.817  0.00  0.00    +0.150 HD
BRANCH  18  20
ATOM     20  CA  GLY A   7     -21.841  55.012   2.219  0.00  0.00    +0.176 C 
BRANCH  20  21
ATOM     21  C   GLY A   7     -22.636  55.368   3.456  0.00  0.00    +0.243 C 
ATOM     22  N   GLY A   8     -21.995  56.020   4.413  0.00  0.00    -0.296 N 
ATOM     23  H   GLY A   8     -20.971  56.186   4.335  0.00  0.00    +0.150 HD
ATOM     24  O   GLY A   7     -23.821  55.067   3.550  0.00  0.00    -0.273 OA
BRANCH  22  25
ATOM     25  CA  GLY A   8     -22.721  56.501   5.568  0.00  0.00    +0.163 C 
BRANCH  25  26
ATOM     26  C   GLY A   8     -22.105  56.094   6.883  0.00  0.00    +0.229 C 
ATOM     27  O   GLY A   8     -20.892  56.188   7.078  0.00  0.00    -0.286 OA
ENDBRANCH  25  26
ENDBRANCH  22  25
ENDBRANCH  20  21
ENDBRANCH  18  20
ENDBRANCH  15  16
BRANCH  15  28
ATOM     28  CB  ILE A   6     -17.161  55.577   1.268  0.00  0.00    +0.027 C 
ATOM     29  CG2 ILE A   6     -17.840  54.981   0.036  0.00  0.00    +0.002 C 
BRANCH  28  30
ATOM     30  CG1 ILE A   6     -16.281  56.765   0.864  0.00  0.00    +0.002 C 
ATOM     31  CD1 ILE A   6     -15.208  56.434  -0.136  0.00  0.00    +0.000 C 
ENDBRANCH  28  30
ENDBRANCH  15  28
ENDBRANCH  13  15
ENDBRANCH  10  11
ENDBRANCH   8  10
ENDBRANCH   5   6
ENDBRANCH   3   5
BRANCH   1  32
ATOM     32  CA  VAL A   3     -18.383  55.089  12.779  0.00  0.00    +0.149 C 
BRANCH  32  35
ATOM     33  C   VAL A   2     -19.880  55.287  14.739  0.00  0.00    +0.241 C 
ATOM     34  O   VAL A   2     -19.266  56.249  15.219  0.00  0.00    -0.273 OA
ATOM     35  N   VAL A   3     -19.549  54.704  13.589  0.00  0.00    -0.297 N 
ATOM     36  H   VAL A   3     -20.151  53.930  13.242  0.00  0.00    +0.150 HD
BRANCH  33  37
ATOM     37  CA  VAL A   2     -21.057  54.675  15.494  0.00  0.00    +0.148 C 
BRANCH  37  40
ATOM     38  C   LYS A   1     -20.819  53.691  17.708  0.00  0.00    +0.238 C 
ATOM     39  O   LYS A   1     -21.352  52.636  17.352  0.00  0.00    -0.274 OA
ATOM     40  N   VAL A   2     -20.669  54.723  16.894  0.00  0.00    -0.297 N 
ATOM     41  H   VAL A   2     -20.258  55.601  17.270  0.00  0.00    +0.150 HD
BRANCH  38  42
ATOM     42  CA  LYS A   1     -20.346  53.900  19.150  0.00  0.00    +0.145 C 
BRANCH  42  43
ATOM     43  N   LYS A   1     -20.860  52.801  19.958  0.00  0.00    -0.238 NA
ATOM     44  H   LYS A   1     -20.991  51.867  19.519  0.00  0.00    +0.142 HD
ENDBRANCH  42  43
BRANCH  42  45
ATOM     45  CB  LYS A   1     -18.805  54.034  19.279  0.00  0.00    +0.026 C 
BRANCH  45  46
ATOM     46  CG  LYS A   1     -18.202  55.324  18.713  0.00  0.00    -0.000 C 
BRANCH  46  47
ATOM     47  CD  LYS A   1     -16.736  55.527  19.091  0.00  0.00    -0.024 C 
BRANCH  47  48
ATOM     48  CE  LYS A   1     -15.862  55.978  17.910  0.00  0.00    -0.086 C 
BRANCH  48  49
ATOM     49  NZ  LYS A   1     -16.148  57.338  17.345  0.00  0.00    +0.380 N 
ATOM     50  HZ1 LYS A   1     -16.016  58.055  18.087  0.00  0.00    -0.089 HD
ATOM     51  HZ2 LYS A   1     -17.129  57.370  17.001  0.00  0.00    -0.089 HD
ATOM     52  HZ3 LYS A   1     -15.497  57.529  16.557  0.00  0.00    -0.089 HD
ENDBRANCH  48  49
ENDBRANCH  47  48
ENDBRANCH  46  47
ENDBRANCH  45  46
ENDBRANCH  42  45
ENDBRANCH  38  42
ENDBRANCH  37  40
BRANCH  37  53
ATOM     53  CB  VAL A   2     -22.394  55.438  15.262  0.00  0.00    +0.027 C 
ATOM     54  CG2 VAL A   2     -23.571  54.700  15.904  0.00  0.00    +0.002 C 
ATOM     55  CG1 VAL A   2     -22.663  55.629  13.786  0.00  0.00    +0.002 C 
ENDBRANCH  37  53
ENDBRANCH  33  37
ENDBRANCH  32  35
BRANCH  32  56
ATOM     56  CB  VAL A   3     -17.420  53.876  12.611  0.00  0.00    +0.027 C 
ATOM     57  CG2 VAL A   3     -16.837  53.472  13.941  0.00  0.00    +0.002 C 
ATOM     58  CG1 VAL A   3     -16.274  54.163  11.656  0.00  0.00    +0.002 C 
ENDBRANCH  32  56
ENDBRANCH   1  32
TORSDOF 25
REMARK  Name = ../refined-set-2016/4m8y/4m8y_pocket.pdb
REMARK  231 active torsions:
REMARK  status: ('A' for Active; 'I' for Inactive)
REMARK    1  A    between atoms: _1  and  _3
REMARK    2  A    between atoms: _3  and  _4
REMARK    3  A    between atoms: _3  and  _6
REMARK    4  A    between atoms: _6  and  _7
REMARK    5  A    between atoms: _7  and  _8
REMARK    6  A    between atoms: _8  and  _9
REMARK    7  A    between atoms: _18  and  _20
REMARK    8  A    between atoms: _20  and  _21
REMARK    9  A    between atoms: _20  and  _23
REMARK   10  A    between atoms: _23  and  _24
REMARK   11  A    between atoms: _27  and  _29
REMARK   12  A    between atoms: _29  and  _30
REMARK   13  A    between atoms: _29  and  _32
REMARK   14  A    between atoms: _32  and  _33
REMARK   15  A    between atoms: _36  and  _38
REMARK   16  A    between atoms: _38  and  _39
REMARK   17  A    between atoms: _38  and  _41
REMARK   18  A    between atoms: _41  and  _42
REMARK   19  A    between atoms: _45  and  _47
REMARK   20  A    between atoms: _47  and  _48
REMARK   21  A    between atoms: _47  and  _50
REMARK   22  A    between atoms: _50  and  _51
REMARK   23  A    between atoms: _54  and  _56
REMARK   24  A    between atoms: _56  and  _57
REMARK   25  A    between atoms: _59  and  _61
REMARK   26  A    between atoms: _61  and  _62
REMARK   27  A    between atoms: _65  and  _67
REMARK   28  A    between atoms: _67  and  _68
REMARK   29  A    between atoms: _67  and  _70
REMARK   30  A    between atoms: _70  and  _71
REMARK   31  A    between atoms: _74  and  _76
REMARK   32  A    between atoms: _76  and  _77
REMARK   33  A    between atoms: _76  and  _79
REMARK   34  A    between atoms: _79  and  _80
REMARK   35  A    between atoms: _83  and  _85
REMARK   36  A    between atoms: _85  and  _86
REMARK   37  A    between atoms: _85  and  _88
REMARK   38  A    between atoms: _88  and  _89
REMARK   39  A    between atoms: _92  and  _94
REMARK   40  A    between atoms: _94  and  _95
REMARK   41  A    between atoms: _94  and  _97
REMARK   42  A    between atoms: _97  and  _98
REMARK   43  A    between atoms: _101  and  _103
REMARK   44  A    between atoms: _103  and  _104
REMARK   45  A    between atoms: _103  and  _106
REMARK   46  A    between atoms: _106  and  _107
REMARK   47  A    between atoms: _107  and  _108
REMARK   48  A    between atoms: _108  and  _109
REMARK   49  A    between atoms: _109  and  _110
REMARK   50  A    between atoms: _114  and  _116
REMARK   51  A    between atoms: _116  and  _117
REMARK   52  A    between atoms: _116  and  _119
REMARK   53  A    between atoms: _122  and  _124
REMARK   54  A    between atoms: _124  and  _125
REMARK   55  A    between atoms: _124  and  _127
REMARK   56  A    between atoms: _130  and  _132
REMARK   57  A    between atoms: _132  and  _133
REMARK   58  A    between atoms: _135  and  _137
REMARK   59  A    between atoms: _137  and  _138
REMARK   60  A    between atoms: _140  and  _142
REMARK   61  A    between atoms: _142  and  _143
REMARK   62  A    between atoms: _142  and  _145
REMARK   63  A    between atoms: _145  and  _146
REMARK   64  A    between atoms: _149  and  _151
REMARK   65  A    between atoms: _151  and  _152
REMARK   66  A    between atoms: _154  and  _156
REMARK   67  A    between atoms: _156  and  _157
REMARK   68  A    between atoms: _159  and  _161
REMARK   69  A    between atoms: _161  and  _162
REMARK   70  A    between atoms: _161  and  _164
REMARK   71  A    between atoms: _164  and  _165
REMARK   72  A    between atoms: _171  and  _173
REMARK   73  A    between atoms: _173  and  _174
REMARK   74  A    between atoms: _173  and  _176
REMARK   75  A    between atoms: _176  and  _177
REMARK   76  A    between atoms: _177  and  _178
REMARK   77  A    between atoms: _180  and  _182
REMARK   78  A    between atoms: _182  and  _183
REMARK   79  A    between atoms: _182  and  _185
REMARK   80  A    between atoms: _185  and  _186
REMARK   81  A    between atoms: _189  and  _191
REMARK   82  A    between atoms: _191  and  _192
REMARK   83  A    between atoms: _191  and  _194
REMARK   84  A    between atoms: _194  and  _195
REMARK   85  A    between atoms: _199  and  _200
REMARK   86  A    between atoms: _205  and  _207
REMARK   87  A    between atoms: _207  and  _208
REMARK   88  A    between atoms: _211  and  _213
REMARK   89  A    between atoms: _213  and  _214
REMARK   90  A    between atoms: _213  and  _216
REMARK   91  A    between atoms: _216  and  _217
REMARK   92  A    between atoms: _222  and  _224
REMARK   93  A    between atoms: _224  and  _225
REMARK   94  A    between atoms: _224  and  _227
REMARK   95  A    between atoms: _227  and  _228
REMARK   96  A    between atoms: _231  and  _233
REMARK   97  A    between atoms: _233  and  _234
REMARK   98  A    between atoms: _233  and  _236
REMARK   99  A    between atoms: _236  and  _237
REMARK  100  A    between atoms: _240  and  _242
REMARK  101  A    between atoms: _242  and  _243
REMARK  102  A    between atoms: _245  and  _247
REMARK  103  A    between atoms: _247  and  _248
REMARK  104  A    between atoms: _247  and  _250
REMARK  105  A    between atoms: _250  and  _251
REMARK  106  A    between atoms: _251  and  _252
REMARK  107  A    between atoms: _252  and  _253
REMARK  108  A    between atoms: _262  and  _264
REMARK  109  A    between atoms: _264  and  _265
REMARK  110  A    between atoms: _264  and  _267
REMARK  111  A    between atoms: _267  and  _268
REMARK  112  A    between atoms: _273  and  _275
REMARK  113  A    between atoms: _275  and  _276
REMARK  114  A    between atoms: _275  and  _278
REMARK  115  A    between atoms: _278  and  _279
REMARK  116  A    between atoms: _279  and  _280
REMARK  117  A    between atoms: _280  and  _281
REMARK  118  A    between atoms: _290  and  _292
REMARK  119  A    between atoms: _292  and  _293
REMARK  120  A    between atoms: _292  and  _295
REMARK  121  A    between atoms: _295  and  _296
REMARK  122  A    between atoms: _302  and  _304
REMARK  123  A    between atoms: _304  and  _305
REMARK  124  A    between atoms: _304  and  _307
REMARK  125  A    between atoms: _307  and  _308
REMARK  126  A    between atoms: _311  and  _313
REMARK  127  A    between atoms: _313  and  _314
REMARK  128  A    between atoms: _313  and  _316
REMARK  129  A    between atoms: _316  and  _317
REMARK  130  A    between atoms: _320  and  _322
REMARK  131  A    between atoms: _322  and  _323
REMARK  132  A    between atoms: _322  and  _325
REMARK  133  A    between atoms: _325  and  _326
REMARK  134  A    between atoms: _329  and  _331
REMARK  135  A    between atoms: _331  and  _332
REMARK  136  A    between atoms: _331  and  _334
REMARK  137  A    between atoms: _334  and  _335
REMARK  138  A    between atoms: _338  and  _340
REMARK  139  A    between atoms: _340  and  _341
REMARK  140  A    between atoms: _343  and  _345
REMARK  141  A    between atoms: _345  and  _346
REMARK  142  A    between atoms: _349  and  _351
REMARK  143  A    between atoms: _351  and  _352
REMARK  144  A    between atoms: _351  and  _354
REMARK  145  A    between atoms: _354  and  _355
REMARK  146  A    between atoms: _358  and  _360
REMARK  147  A    between atoms: _360  and  _361
REMARK  148  A    between atoms: _360  and  _363
REMARK  149  A    between atoms: _363  and  _364
REMARK  150  A    between atoms: _367  and  _369
REMARK  151  A    between atoms: _369  and  _370
REMARK  152  A    between atoms: _369  and  _372
REMARK  153  A    between atoms: _372  and  _373
REMARK  154  A    between atoms: _376  and  _378
REMARK  155  A    between atoms: _378  and  _379
REMARK  156  A    between atoms: _378  and  _381
REMARK  157  A    between atoms: _381  and  _382
REMARK  158  A    between atoms: _385  and  _387
REMARK  159  A    between atoms: _387  and  _388
REMARK  160  A    between atoms: _387  and  _390
REMARK  161  A    between atoms: _390  and  _391
REMARK  162  A    between atoms: _391  and  _392
REMARK  163  A    between atoms: _395  and  _397
REMARK  164  A    between atoms: _397  and  _398
REMARK  165  A    between atoms: _397  and  _400
REMARK  166  A    between atoms: _400  and  _401
REMARK  167  A    between atoms: _401  and  _402
REMARK  168  A    between atoms: _402  and  _403
REMARK  169  A    between atoms: _403  and  _404
REMARK  170  A    between atoms: _408  and  _410
REMARK  171  A    between atoms: _410  and  _411
REMARK  172  A    between atoms: _410  and  _413
REMARK  173  A    between atoms: _416  and  _418
REMARK  174  A    between atoms: _418  and  _419
REMARK  175  A    between atoms: _418  and  _421
REMARK  176  A    between atoms: _424  and  _426
REMARK  177  A    between atoms: _426  and  _427
REMARK  178  A    between atoms: _429  and  _431
REMARK  179  A    between atoms: _431  and  _432
REMARK  180  A    between atoms: _434  and  _436
REMARK  181  A    between atoms: _436  and  _437
REMARK  182  A    between atoms: _436  and  _439
REMARK  183  A    between atoms: _439  and  _440
REMARK  184  A    between atoms: _443  and  _445
REMARK  185  A    between atoms: _445  and  _446
REMARK  186  A    between atoms: _448  and  _450
REMARK  187  A    between atoms: _450  and  _451
REMARK  188  A    between atoms: _453  and  _455
REMARK  189  A    between atoms: _455  and  _456
REMARK  190  A    between atoms: _455  and  _458
REMARK  191  A    between atoms: _458  and  _459
REMARK  192  A    between atoms: _459  and  _460
REMARK  193  A    between atoms: _462  and  _464
REMARK  194  A    between atoms: _464  and  _465
REMARK  195  A    between atoms: _464  and  _467
REMARK  196  A    between atoms: _470  and  _472
REMARK  197  A    between atoms: _472  and  _473
REMARK  198  A    between atoms: _472  and  _475
REMARK  199  A    between atoms: _475  and  _476
REMARK  200  A    between atoms: _480  and  _481
REMARK  201  A    between atoms: _486  and  _488
REMARK  202  A    between atoms: _488  and  _489
REMARK  203  A    between atoms: _488  and  _491
REMARK  204  A    between atoms: _491  and  _492
REMARK  205  A    between atoms: _496  and  _497
REMARK  206  A    between atoms: _502  and  _504
REMARK  207  A    between atoms: _504  and  _505
REMARK  208  A    between atoms: _508  and  _510
REMARK  209  A    between atoms: _510  and  _511
REMARK  210  A    between atoms: _510  and  _513
REMARK  211  A    between atoms: _513  and  _514
REMARK  212  A    between atoms: _519  and  _521
REMARK  213  A    between atoms: _521  and  _522
REMARK  214  A    between atoms: _521  and  _524
REMARK  215  A    between atoms: _524  and  _525
REMARK  216  A    between atoms: _528  and  _530
REMARK  217  A    between atoms: _530  and  _531
REMARK  218  A    between atoms: _530  and  _533
REMARK  219  A    between atoms: _533  and  _534
REMARK  220  A    between atoms: _537  and  _539
REMARK  221  A    between atoms: _539  and  _540
REMARK  222  A    between atoms: _542  and  _544
REMARK  223  A    between atoms: _544  and  _545
REMARK  224  A    between atoms: _544  and  _547
REMARK  225  A    between atoms: _547  and  _548
REMARK  226  A    between atoms: _548  and  _549
REMARK  227  A    between atoms: _549  and  _550
REMARK  228  A    between atoms: _559  and  _561
REMARK  229  A    between atoms: _561  and  _562
REMARK  230  A    between atoms: _561  and  _564
REMARK  231  A    between atoms: _564  and  _565
REMARK                            x       y       z     vdW  Elec       q    Type
REMARK                         _______ _______ _______ _____ _____    ______ ____
ROOT
ATOM      1  CA  MET A   1     -22.401  52.024  10.984  0.00  0.00    +0.134 C 
ENDROOT
BRANCH   1   2
ATOM      2  N   MET A   1     -22.055  53.348  10.480  0.00  0.00    -0.239 NA
ATOM      3  H   MET A   1     -21.246  53.872  10.870  0.00  0.00    +0.142 HD
ENDBRANCH   1   2
BRANCH   1   4
ATOM      4  C   MET A   1     -22.190  51.881  12.488  0.00  0.00    +0.224 C 
ATOM      5  O   MET A   1     -21.291  52.488  13.061  0.00  0.00    -0.287 OA
ENDBRANCH   1   4
BRANCH   1   6
ATOM      6  CB  MET A   1     -21.708  50.920  10.180  0.00  0.00    +0.037 C 
BRANCH   6   7
ATOM      7  CG  MET A   1     -20.269  50.676  10.556  0.00  0.00    +0.059 C 
BRANCH   7   8
ATOM      8  SD  MET A   1     -19.706  49.047  10.023  0.00  0.00    -0.139 S 
ATOM      9  CE  MET A   1     -18.127  49.050  10.862  0.00  0.00    +0.069 C 
ENDBRANCH   7   8
ENDBRANCH   6   7
ENDBRANCH   1   6
TORSDOF 5
REMARK  Name = ../refined-set-2016/4m8y/4m8y_pocket.pdb
REMARK  231 active torsions:
REMARK  status: ('A' for Active; 'I' for Inactive)
REMARK    1  A    between atoms: _1  and  _3
REMARK    2  A    between atoms: _3  and  _4
REMARK    3  A    between atoms: _3  and  _6
REMARK    4  A    between atoms: _6  and  _7
REMARK    5  A    between atoms: _7  and  _8
REMARK    6  A    between atoms: _8  and  _9
REMARK    7  A    between atoms: _18  and  _20
REMARK    8  A    between atoms: _20  and  _21
REMARK    9  A    between atoms: _20  and  _23
REMARK   10  A    between atoms: _23  and  _24
REMARK   11  A    between atoms: _27  and  _29
REMARK   12  A    between atoms: _29  and  _30
REMARK   13  A    between atoms: _29  and  _32
REMARK   14  A    between atoms: _32  and  _33
REMARK   15  A    between atoms: _36  and  _38
REMARK   16  A    between atoms: _38  and  _39
REMARK   17  A    between atoms: _38  and  _41
REMARK   18  A    between atoms: _41  and  _42
REMARK   19  A    between atoms: _45  and  _47
REMARK   20  A    between atoms: _47  and  _48
REMARK   21  A    between atoms: _47  and  _50
REMARK   22  A    between atoms: _50  and  _51
REMARK   23  A    between atoms: _54  and  _56
REMARK   24  A    between atoms: _56  and  _57
REMARK   25  A    between atoms: _59  and  _61
REMARK   26  A    between atoms: _61  and  _62
REMARK   27  A    between atoms: _65  and  _67
REMARK   28  A    between atoms: _67  and  _68
REMARK   29  A    between atoms: _67  and  _70
REMARK   30  A    between atoms: _70  and  _71
REMARK   31  A    between atoms: _74  and  _76
REMARK   32  A    between atoms: _76  and  _77
REMARK   33  A    between atoms: _76  and  _79
REMARK   34  A    between atoms: _79  and  _80
REMARK   35  A    between atoms: _83  and  _85
REMARK   36  A    between atoms: _85  and  _86
REMARK   37  A    between atoms: _85  and  _88
REMARK   38  A    between atoms: _88  and  _89
REMARK   39  A    between atoms: _92  and  _94
REMARK   40  A    between atoms: _94  and  _95
REMARK   41  A    between atoms: _94  and  _97
REMARK   42  A    between atoms: _97  and  _98
REMARK   43  A    between atoms: _101  and  _103
REMARK   44  A    between atoms: _103  and  _104
REMARK   45  A    between atoms: _103  and  _106
REMARK   46  A    between atoms: _106  and  _107
REMARK   47  A    between atoms: _107  and  _108
REMARK   48  A    between atoms: _108  and  _109
REMARK   49  A    between atoms: _109  and  _110
REMARK   50  A    between atoms: _114  and  _116
REMARK   51  A    between atoms: _116  and  _117
REMARK   52  A    between atoms: _116  and  _119
REMARK   53  A    between atoms: _122  and  _124
REMARK   54  A    between atoms: _124  and  _125
REMARK   55  A    between atoms: _124  and  _127
REMARK   56  A    between atoms: _130  and  _132
REMARK   57  A    between atoms: _132  and  _133
REMARK   58  A    between atoms: _135  and  _137
REMARK   59  A    between atoms: _137  and  _138
REMARK   60  A    between atoms: _140  and  _142
REMARK   61  A    between atoms: _142  and  _143
REMARK   62  A    between atoms: _142  and  _145
REMARK   63  A    between atoms: _145  and  _146
REMARK   64  A    between atoms: _149  and  _151
REMARK   65  A    between atoms: _151  and  _152
REMARK   66  A    between atoms: _154  and  _156
REMARK   67  A    between atoms: _156  and  _157
REMARK   68  A    between atoms: _159  and  _161
REMARK   69  A    between atoms: _161  and  _162
REMARK   70  A    between atoms: _161  and  _164
REMARK   71  A    between atoms: _164  and  _165
REMARK   72  A    between atoms: _171  and  _173
REMARK   73  A    between atoms: _173  and  _174
REMARK   74  A    between atoms: _173  and  _176
REMARK   75  A    between atoms: _176  and  _177
REMARK   76  A    between atoms: _177  and  _178
REMARK   77  A    between atoms: _180  and  _182
REMARK   78  A    between atoms: _182  and  _183
REMARK   79  A    between atoms: _182  and  _185
REMARK   80  A    between atoms: _185  and  _186
REMARK   81  A    between atoms: _189  and  _191
REMARK   82  A    between atoms: _191  and  _192
REMARK   83  A    between atoms: _191  and  _194
REMARK   84  A    between atoms: _194  and  _195
REMARK   85  A    between atoms: _199  and  _200
REMARK   86  A    between atoms: _205  and  _207
REMARK   87  A    between atoms: _207  and  _208
REMARK   88  A    between atoms: _211  and  _213
REMARK   89  A    between atoms: _213  and  _214
REMARK   90  A    between atoms: _213  and  _216
REMARK   91  A    between atoms: _216  and  _217
REMARK   92  A    between atoms: _222  and  _224
REMARK   93  A    between atoms: _224  and  _225
REMARK   94  A    between atoms: _224  and  _227
REMARK   95  A    between atoms: _227  and  _228
REMARK   96  A    between atoms: _231  and  _233
REMARK   97  A    between atoms: _233  and  _234
REMARK   98  A    between atoms: _233  and  _236
REMARK   99  A    between atoms: _236  and  _237
REMARK  100  A    between atoms: _240  and  _242
REMARK  101  A    between atoms: _242  and  _243
REMARK  102  A    between atoms: _245  and  _247
REMARK  103  A    between atoms: _247  and  _248
REMARK  104  A    between atoms: _247  and  _250
REMARK  105  A    between atoms: _250  and  _251
REMARK  106  A    between atoms: _251  and  _252
REMARK  107  A    between atoms: _252  and  _253
REMARK  108  A    between atoms: _262  and  _264
REMARK  109  A    between atoms: _264  and  _265
REMARK  110  A    between atoms: _264  and  _267
REMARK  111  A    between atoms: _267  and  _268
REMARK  112  A    between atoms: _273  and  _275
REMARK  113  A    between atoms: _275  and  _276
REMARK  114  A    between atoms: _275  and  _278
REMARK  115  A    between atoms: _278  and  _279
REMARK  116  A    between atoms: _279  and  _280
REMARK  117  A    between atoms: _280  and  _281
REMARK  118  A    between atoms: _290  and  _292
REMARK  119  A    between atoms: _292  and  _293
REMARK  120  A    between atoms: _292  and  _295
REMARK  121  A    between atoms: _295  and  _296
REMARK  122  A    between atoms: _302  and  _304
REMARK  123  A    between atoms: _304  and  _305
REMARK  124  A    between atoms: _304  and  _307
REMARK  125  A    between atoms: _307  and  _308
REMARK  126  A    between atoms: _311  and  _313
REMARK  127  A    between atoms: _313  and  _314
REMARK  128  A    between atoms: _313  and  _316
REMARK  129  A    between atoms: _316  and  _317
REMARK  130  A    between atoms: _320  and  _322
REMARK  131  A    between atoms: _322  and  _323
REMARK  132  A    between atoms: _322  and  _325
REMARK  133  A    between atoms: _325  and  _326
REMARK  134  A    between atoms: _329  and  _331
REMARK  135  A    between atoms: _331  and  _332
REMARK  136  A    between atoms: _331  and  _334
REMARK  137  A    between atoms: _334  and  _335
REMARK  138  A    between atoms: _338  and  _340
REMARK  139  A    between atoms: _340  and  _341
REMARK  140  A    between atoms: _343  and  _345
REMARK  141  A    between atoms: _345  and  _346
REMARK  142  A    between atoms: _349  and  _351
REMARK  143  A    between atoms: _351  and  _352
REMARK  144  A    between atoms: _351  and  _354
REMARK  145  A    between atoms: _354  and  _355
REMARK  146  A    between atoms: _358  and  _360
REMARK  147  A    between atoms: _360  and  _361
REMARK  148  A    between atoms: _360  and  _363
REMARK  149  A    between atoms: _363  and  _364
REMARK  150  A    between atoms: _367  and  _369
REMARK  151  A    between atoms: _369  and  _370
REMARK  152  A    between atoms: _369  and  _372
REMARK  153  A    between atoms: _372  and  _373
REMARK  154  A    between atoms: _376  and  _378
REMARK  155  A    between atoms: _378  and  _379
REMARK  156  A    between atoms: _378  and  _381
REMARK  157  A    between atoms: _381  and  _382
REMARK  158  A    between atoms: _385  and  _387
REMARK  159  A    between atoms: _387  and  _388
REMARK  160  A    between atoms: _387  and  _390
REMARK  161  A    between atoms: _390  and  _391
REMARK  162  A    between atoms: _391  and  _392
REMARK  163  A    between atoms: _395  and  _397
REMARK  164  A    between atoms: _397  and  _398
REMARK  165  A    between atoms: _397  and  _400
REMARK  166  A    between atoms: _400  and  _401
REMARK  167  A    between atoms: _401  and  _402
REMARK  168  A    between atoms: _402  and  _403
REMARK  169  A    between atoms: _403  and  _404
REMARK  170  A    between atoms: _408  and  _410
REMARK  171  A    between atoms: _410  and  _411
REMARK  172  A    between atoms: _410  and  _413
REMARK  173  A    between atoms: _416  and  _418
REMARK  174  A    between atoms: _418  and  _419
REMARK  175  A    between atoms: _418  and  _421
REMARK  176  A    between atoms: _424  and  _426
REMARK  177  A    between atoms: _426  and  _427
REMARK  178  A    between atoms: _429  and  _431
REMARK  179  A    between atoms: _431  and  _432
REMARK  180  A    between atoms: _434  and  _436
REMARK  181  A    between atoms: _436  and  _437
REMARK  182  A    between atoms: _436  and  _439
REMARK  183  A    between atoms: _439  and  _440
REMARK  184  A    between atoms: _443  and  _445
REMARK  185  A    between atoms: _445  and  _446
REMARK  186  A    between atoms: _448  and  _450
REMARK  187  A    between atoms: _450  and  _451
REMARK  188  A    between atoms: _453  and  _455
REMARK  189  A    between atoms: _455  and  _456
REMARK  190  A    between atoms: _455  and  _458
REMARK  191  A    between atoms: _458  and  _459
REMARK  192  A    between atoms: _459  and  _460
REMARK  193  A    between atoms: _462  and  _464
REMARK  194  A    between atoms: _464  and  _465
REMARK  195  A    between atoms: _464  and  _467
REMARK  196  A    between atoms: _470  and  _472
REMARK  197  A    between atoms: _472  and  _473
REMARK  198  A    between atoms: _472  and  _475
REMARK  199  A    between atoms: _475  and  _476
REMARK  200  A    between atoms: _480  and  _481
REMARK  201  A    between atoms: _486  and  _488
REMARK  202  A    between atoms: _488  and  _489
REMARK  203  A    between atoms: _488  and  _491
REMARK  204  A    between atoms: _491  and  _492
REMARK  205  A    between atoms: _496  and  _497
REMARK  206  A    between atoms: _502  and  _504
REMARK  207  A    between atoms: _504  and  _505
REMARK  208  A    between atoms: _508  and  _510
REMARK  209  A    between atoms: _510  and  _511
REMARK  210  A    between atoms: _510  and  _513
REMARK  211  A    between atoms: _513  and  _514
REMARK  212  A    between atoms: _519  and  _521
REMARK  213  A    between atoms: _521  and  _522
REMARK  214  A    between atoms: _521  and  _524
REMARK  215  A    between atoms: _524  and  _525
REMARK  216  A    between atoms: _528  and  _530
REMARK  217  A    between atoms: _530  and  _531
REMARK  218  A    between atoms: _530  and  _533
REMARK  219  A    between atoms: _533  and  _534
REMARK  220  A    between atoms: _537  and  _539
REMARK  221  A    between atoms: _539  and  _540
REMARK  222  A    between atoms: _542  and  _544
REMARK  223  A    between atoms: _544  and  _545
REMARK  224  A    between atoms: _544  and  _547
REMARK  225  A    between atoms: _547  and  _548
REMARK  226  A    between atoms: _548  and  _549
REMARK  227  A    between atoms: _549  and  _550
REMARK  228  A    between atoms: _559  and  _561
REMARK  229  A    between atoms: _561  and  _562
REMARK  230  A    between atoms: _561  and  _564
REMARK  231  A    between atoms: _564  and  _565
REMARK                            x       y       z     vdW  Elec       q    Type
REMARK                         _______ _______ _______ _____ _____    ______ ____
ROOT
ATOM      1  CA  VAL A   1     -20.027  49.331  16.445  0.00  0.00    +0.133 C 
ENDROOT
BRANCH   1   2
ATOM      2  CB  VAL A   1     -18.634  49.763  15.915  0.00  0.00    +0.023 C 
ATOM      3  CG2 VAL A   1     -18.233  51.120  16.482  0.00  0.00    +0.002 C 
ATOM      4  CG1 VAL A   1     -18.576  49.763  14.394  0.00  0.00    +0.002 C 
ENDBRANCH   1   2
BRANCH   1   5
ATOM      5  N   VAL A   1     -21.116  50.216  15.986  0.00  0.00    -0.239 NA
ATOM      6  H   VAL A   1     -21.289  51.104  16.499  0.00  0.00    +0.142 HD
ENDBRANCH   1   5
BRANCH   1   7
ATOM      7  C   VAL A   1     -19.935  49.231  17.982  0.00  0.00    +0.224 C 
ATOM      8  O   VAL A   1     -20.391  50.134  18.718  0.00  0.00    -0.287 OA
ENDBRANCH   1   7
TORSDOF 3
REMARK  Name = ../refined-set-2016/4m8y/4m8y_pocket.pdb
REMARK  231 active torsions:
REMARK  status: ('A' for Active; 'I' for Inactive)
REMARK    1  A    between atoms: _1  and  _3
REMARK    2  A    between atoms: _3  and  _4
REMARK    3  A    between atoms: _3  and  _6
REMARK    4  A    between atoms: _6  and  _7
REMARK    5  A    between atoms: _7  and  _8
REMARK    6  A    between atoms: _8  and  _9
REMARK    7  A    between atoms: _18  and  _20
REMARK    8  A    between atoms: _20  and  _21
REMARK    9  A    between atoms: _20  and  _23
REMARK   10  A    between atoms: _23  and  _24
REMARK   11  A    between atoms: _27  and  _29
REMARK   12  A    between atoms: _29  and  _30
REMARK   13  A    between atoms: _29  and  _32
REMARK   14  A    between atoms: _32  and  _33
REMARK   15  A    between atoms: _36  and  _38
REMARK   16  A    between atoms: _38  and  _39
REMARK   17  A    between atoms: _38  and  _41
REMARK   18  A    between atoms: _41  and  _42
REMARK   19  A    between atoms: _45  and  _47
REMARK   20  A    between atoms: _47  and  _48
REMARK   21  A    between atoms: _47  and  _50
REMARK   22  A    between atoms: _50  and  _51
REMARK   23  A    between atoms: _54  and  _56
REMARK   24  A    between atoms: _56  and  _57
REMARK   25  A    between atoms: _59  and  _61
REMARK   26  A    between atoms: _61  and  _62
REMARK   27  A    between atoms: _65  and  _67
REMARK   28  A    between atoms: _67  and  _68
REMARK   29  A    between atoms: _67  and  _70
REMARK   30  A    between atoms: _70  and  _71
REMARK   31  A    between atoms: _74  and  _76
REMARK   32  A    between atoms: _76  and  _77
REMARK   33  A    between atoms: _76  and  _79
REMARK   34  A    between atoms: _79  and  _80
REMARK   35  A    between atoms: _83  and  _85
REMARK   36  A    between atoms: _85  and  _86
REMARK   37  A    between atoms: _85  and  _88
REMARK   38  A    between atoms: _88  and  _89
REMARK   39  A    between atoms: _92  and  _94
REMARK   40  A    between atoms: _94  and  _95
REMARK   41  A    between atoms: _94  and  _97
REMARK   42  A    between atoms: _97  and  _98
REMARK   43  A    between atoms: _101  and  _103
REMARK   44  A    between atoms: _103  and  _104
REMARK   45  A    between atoms: _103  and  _106
REMARK   46  A    between atoms: _106  and  _107
REMARK   47  A    between atoms: _107  and  _108
REMARK   48  A    between atoms: _108  and  _109
REMARK   49  A    between atoms: _109  and  _110
REMARK   50  A    between atoms: _114  and  _116
REMARK   51  A    between atoms: _116  and  _117
REMARK   52  A    between atoms: _116  and  _119
REMARK   53  A    between atoms: _122  and  _124
REMARK   54  A    between atoms: _124  and  _125
REMARK   55  A    between atoms: _124  and  _127
REMARK   56  A    between atoms: _130  and  _132
REMARK   57  A    between atoms: _132  and  _133
REMARK   58  A    between atoms: _135  and  _137
REMARK   59  A    between atoms: _137  and  _138
REMARK   60  A    between atoms: _140  and  _142
REMARK   61  A    between atoms: _142  and  _143
REMARK   62  A    between atoms: _142  and  _145
REMARK   63  A    between atoms: _145  and  _146
REMARK   64  A    between atoms: _149  and  _151
REMARK   65  A    between atoms: _151  and  _152
REMARK   66  A    between atoms: _154  and  _156
REMARK   67  A    between atoms: _156  and  _157
REMARK   68  A    between atoms: _159  and  _161
REMARK   69  A    between atoms: _161  and  _162
REMARK   70  A    between atoms: _161  and  _164
REMARK   71  A    between atoms: _164  and  _165
REMARK   72  A    between atoms: _171  and  _173
REMARK   73  A    between atoms: _173  and  _174
REMARK   74  A    between atoms: _173  and  _176
REMARK   75  A    between atoms: _176  and  _177
REMARK   76  A    between atoms: _177  and  _178
REMARK   77  A    between atoms: _180  and  _182
REMARK   78  A    between atoms: _182  and  _183
REMARK   79  A    between atoms: _182  and  _185
REMARK   80  A    between atoms: _185  and  _186
REMARK   81  A    between atoms: _189  and  _191
REMARK   82  A    between atoms: _191  and  _192
REMARK   83  A    between atoms: _191  and  _194
REMARK   84  A    between atoms: _194  and  _195
REMARK   85  A    between atoms: _199  and  _200
REMARK   86  A    between atoms: _205  and  _207
REMARK   87  A    between atoms: _207  and  _208
REMARK   88  A    between atoms: _211  and  _213
REMARK   89  A    between atoms: _213  and  _214
REMARK   90  A    between atoms: _213  and  _216
REMARK   91  A    between atoms: _216  and  _217
REMARK   92  A    between atoms: _222  and  _224
REMARK   93  A    between atoms: _224  and  _225
REMARK   94  A    between atoms: _224  and  _227
REMARK   95  A    between atoms: _227  and  _228
REMARK   96  A    between atoms: _231  and  _233
REMARK   97  A    between atoms: _233  and  _234
REMARK   98  A    between atoms: _233  and  _236
REMARK   99  A    between atoms: _236  and  _237
REMARK  100  A    between atoms: _240  and  _242
REMARK  101  A    between atoms: _242  and  _243
REMARK  102  A    between atoms: _245  and  _247
REMARK  103  A    between atoms: _247  and  _248
REMARK  104  A    between atoms: _247  and  _250
REMARK  105  A    between atoms: _250  and  _251
REMARK  106  A    between atoms: _251  and  _252
REMARK  107  A    between atoms: _252  and  _253
REMARK  108  A    between atoms: _262  and  _264
REMARK  109  A    between atoms: _264  and  _265
REMARK  110  A    between atoms: _264  and  _267
REMARK  111  A    between atoms: _267  and  _268
REMARK  112  A    between atoms: _273  and  _275
REMARK  113  A    between atoms: _275  and  _276
REMARK  114  A    between atoms: _275  and  _278
REMARK  115  A    between atoms: _278  and  _279
REMARK  116  A    between atoms: _279  and  _280
REMARK  117  A    between atoms: _280  and  _281
REMARK  118  A    between atoms: _290  and  _292
REMARK  119  A    between atoms: _292  and  _293
REMARK  120  A    between atoms: _292  and  _295
REMARK  121  A    between atoms: _295  and  _296
REMARK  122  A    between atoms: _302  and  _304
REMARK  123  A    between atoms: _304  and  _305
REMARK  124  A    between atoms: _304  and  _307
REMARK  125  A    between atoms: _307  and  _308
REMARK  126  A    between atoms: _311  and  _313
REMARK  127  A    between atoms: _313  and  _314
REMARK  128  A    between atoms: _313  and  _316
REMARK  129  A    between atoms: _316  and  _317
REMARK  130  A    between atoms: _320  and  _322
REMARK  131  A    between atoms: _322  and  _323
REMARK  132  A    between atoms: _322  and  _325
REMARK  133  A    between atoms: _325  and  _326
REMARK  134  A    between atoms: _329  and  _331
REMARK  135  A    between atoms: _331  and  _332
REMARK  136  A    between atoms: _331  and  _334
REMARK  137  A    between atoms: _334  and  _335
REMARK  138  A    between atoms: _338  and  _340
REMARK  139  A    between atoms: _340  and  _341
REMARK  140  A    between atoms: _343  and  _345
REMARK  141  A    between atoms: _345  and  _346
REMARK  142  A    between atoms: _349  and  _351
REMARK  143  A    between atoms: _351  and  _352
REMARK  144  A    between atoms: _351  and  _354
REMARK  145  A    between atoms: _354  and  _355
REMARK  146  A    between atoms: _358  and  _360
REMARK  147  A    between atoms: _360  and  _361
REMARK  148  A    between atoms: _360  and  _363
REMARK  149  A    between atoms: _363  and  _364
REMARK  150  A    between atoms: _367  and  _369
REMARK  151  A    between atoms: _369  and  _370
REMARK  152  A    between atoms: _369  and  _372
REMARK  153  A    between atoms: _372  and  _373
REMARK  154  A    between atoms: _376  and  _378
REMARK  155  A    between atoms: _378  and  _379
REMARK  156  A    between atoms: _378  and  _381
REMARK  157  A    between atoms: _381  and  _382
REMARK  158  A    between atoms: _385  and  _387
REMARK  159  A    between atoms: _387  and  _388
REMARK  160  A    between atoms: _387  and  _390
REMARK  161  A    between atoms: _390  and  _391
REMARK  162  A    between atoms: _391  and  _392
REMARK  163  A    between atoms: _395  and  _397
REMARK  164  A    between atoms: _397  and  _398
REMARK  165  A    between atoms: _397  and  _400
REMARK  166  A    between atoms: _400  and  _401
REMARK  167  A    between atoms: _401  and  _402
REMARK  168  A    between atoms: _402  and  _403
REMARK  169  A    between atoms: _403  and  _404
REMARK  170  A    between atoms: _408  and  _410
REMARK  171  A    between atoms: _410  and  _411
REMARK  172  A    between atoms: _410  and  _413
REMARK  173  A    between atoms: _416  and  _418
REMARK  174  A    between atoms: _418  and  _419
REMARK  175  A    between atoms: _418  and  _421
REMARK  176  A    between atoms: _424  and  _426
REMARK  177  A    between atoms: _426  and  _427
REMARK  178  A    between atoms: _429  and  _431
REMARK  179  A    between atoms: _431  and  _432
REMARK  180  A    between atoms: _434  and  _436
REMARK  181  A    between atoms: _436  and  _437
REMARK  182  A    between atoms: _436  and  _439
REMARK  183  A    between atoms: _439  and  _440
REMARK  184  A    between atoms: _443  and  _445
REMARK  185  A    between atoms: _445  and  _446
REMARK  186  A    between atoms: _448  and  _450
REMARK  187  A    between atoms: _450  and  _451
REMARK  188  A    between atoms: _453  and  _455
REMARK  189  A    between atoms: _455  and  _456
REMARK  190  A    between atoms: _455  and  _458
REMARK  191  A    between atoms: _458  and  _459
REMARK  192  A    between atoms: _459  and  _460
REMARK  193  A    between atoms: _462  and  _464
REMARK  194  A    between atoms: _464  and  _465
REMARK  195  A    between atoms: _464  and  _467
REMARK  196  A    between atoms: _470  and  _472
REMARK  197  A    between atoms: _472  and  _473
REMARK  198  A    between atoms: _472  and  _475
REMARK  199  A    between atoms: _475  and  _476
REMARK  200  A    between atoms: _480  and  _481
REMARK  201  A    between atoms: _486  and  _488
REMARK  202  A    between atoms: _488  and  _489
REMARK  203  A    between atoms: _488  and  _491
REMARK  204  A    between atoms: _491  and  _492
REMARK  205  A    between atoms: _496  and  _497
REMARK  206  A    between atoms: _502  and  _504
REMARK  207  A    between atoms: _504  and  _505
REMARK  208  A    between atoms: _508  and  _510
REMARK  209  A    between atoms: _510  and  _511
REMARK  210  A    between atoms: _510  and  _513
REMARK  211  A    between atoms: _513  and  _514
REMARK  212  A    between atoms: _519  and  _521
REMARK  213  A    between atoms: _521  and  _522
REMARK  214  A    between atoms: _521  and  _524
REMARK  215  A    between atoms: _524  and  _525
REMARK  216  A    between atoms: _528  and  _530
REMARK  217  A    between atoms: _530  and  _531
REMARK  218  A    between atoms: _530  and  _533
REMARK  219  A    between atoms: _533  and  _534
REMARK  220  A    between atoms: _537  and  _539
REMARK  221  A    between atoms: _539  and  _540
REMARK  222  A    between atoms: _542  and  _544
REMARK  223  A    between atoms: _544  and  _545
REMARK  224  A    between atoms: _544  and  _547
REMARK  225  A    between atoms: _547  and  _548
REMARK  226  A    between atoms: _548  and  _549
REMARK  227  A    between atoms: _549  and  _550
REMARK  228  A    between atoms: _559  and  _561
REMARK  229  A    between atoms: _561  and  _562
REMARK  230  A    between atoms: _561  and  _564
REMARK  231  A    between atoms: _564  and  _565
REMARK                            x       y       z     vdW  Elec       q    Type
REMARK                         _______ _______ _______ _____ _____    ______ ____
ROOT
ATOM      1  CA  LEU A   1     -14.098  48.455  17.106  0.00  0.00    +0.133 C 
ENDROOT
BRANCH   1   2
ATOM      2  N   LEU A   1     -12.657  48.402  17.369  0.00  0.00    -0.239 NA
ATOM      3  H   LEU A   1     -11.999  48.627  16.595  0.00  0.00    +0.142 HD
ENDBRANCH   1   2
BRANCH   1   4
ATOM      4  C   LEU A   1     -14.562  47.194  16.413  0.00  0.00    +0.224 C 
ATOM      5  O   LEU A   1     -13.874  46.688  15.524  0.00  0.00    -0.287 OA
ENDBRANCH   1   4
BRANCH   1   6
ATOM      6  CB  LEU A   1     -14.461  49.691  16.267  0.00  0.00    +0.025 C 
BRANCH   6   7
ATOM      7  CG  LEU A   1     -13.962  51.045  16.778  0.00  0.00    +0.002 C 
ATOM      8  CD2 LEU A   1     -14.295  51.257  18.257  0.00  0.00    +0.000 C 
ATOM      9  CD1 LEU A   1     -14.518  52.187  15.925  0.00  0.00    +0.000 C 
ENDBRANCH   6   7
ENDBRANCH   1   6
TORSDOF 4
REMARK  Name = ../refined-set-2016/4m8y/4m8y_pocket.pdb
REMARK  231 active torsions:
REMARK  status: ('A' for Active; 'I' for Inactive)
REMARK    1  A    between atoms: _1  and  _3
REMARK    2  A    between atoms: _3  and  _4
REMARK    3  A    between atoms: _3  and  _6
REMARK    4  A    between atoms: _6  and  _7
REMARK    5  A    between atoms: _7  and  _8
REMARK    6  A    between atoms: _8  and  _9
REMARK    7  A    between atoms: _18  and  _20
REMARK    8  A    between atoms: _20  and  _21
REMARK    9  A    between atoms: _20  and  _23
REMARK   10  A    between atoms: _23  and  _24
REMARK   11  A    between atoms: _27  and  _29
REMARK   12  A    between atoms: _29  and  _30
REMARK   13  A    between atoms: _29  and  _32
REMARK   14  A    between atoms: _32  and  _33
REMARK   15  A    between atoms: _36  and  _38
REMARK   16  A    between atoms: _38  and  _39
REMARK   17  A    between atoms: _38  and  _41
REMARK   18  A    between atoms: _41  and  _42
REMARK   19  A    between atoms: _45  and  _47
REMARK   20  A    between atoms: _47  and  _48
REMARK   21  A    between atoms: _47  and  _50
REMARK   22  A    between atoms: _50  and  _51
REMARK   23  A    between atoms: _54  and  _56
REMARK   24  A    between atoms: _56  and  _57
REMARK   25  A    between atoms: _59  and  _61
REMARK   26  A    between atoms: _61  and  _62
REMARK   27  A    between atoms: _65  and  _67
REMARK   28  A    between atoms: _67  and  _68
REMARK   29  A    between atoms: _67  and  _70
REMARK   30  A    between atoms: _70  and  _71
REMARK   31  A    between atoms: _74  and  _76
REMARK   32  A    between atoms: _76  and  _77
REMARK   33  A    between atoms: _76  and  _79
REMARK   34  A    between atoms: _79  and  _80
REMARK   35  A    between atoms: _83  and  _85
REMARK   36  A    between atoms: _85  and  _86
REMARK   37  A    between atoms: _85  and  _88
REMARK   38  A    between atoms: _88  and  _89
REMARK   39  A    between atoms: _92  and  _94
REMARK   40  A    between atoms: _94  and  _95
REMARK   41  A    between atoms: _94  and  _97
REMARK   42  A    between atoms: _97  and  _98
REMARK   43  A    between atoms: _101  and  _103
REMARK   44  A    between atoms: _103  and  _104
REMARK   45  A    between atoms: _103  and  _106
REMARK   46  A    between atoms: _106  and  _107
REMARK   47  A    between atoms: _107  and  _108
REMARK   48  A    between atoms: _108  and  _109
REMARK   49  A    between atoms: _109  and  _110
REMARK   50  A    between atoms: _114  and  _116
REMARK   51  A    between atoms: _116  and  _117
REMARK   52  A    between atoms: _116  and  _119
REMARK   53  A    between atoms: _122  and  _124
REMARK   54  A    between atoms: _124  and  _125
REMARK   55  A    between atoms: _124  and  _127
REMARK   56  A    between atoms: _130  and  _132
REMARK   57  A    between atoms: _132  and  _133
REMARK   58  A    between atoms: _135  and  _137
REMARK   59  A    between atoms: _137  and  _138
REMARK   60  A    between atoms: _140  and  _142
REMARK   61  A    between atoms: _142  and  _143
REMARK   62  A    between atoms: _142  and  _145
REMARK   63  A    between atoms: _145  and  _146
REMARK   64  A    between atoms: _149  and  _151
REMARK   65  A    between atoms: _151  and  _152
REMARK   66  A    between atoms: _154  and  _156
REMARK   67  A    between atoms: _156  and  _157
REMARK   68  A    between atoms: _159  and  _161
REMARK   69  A    between atoms: _161  and  _162
REMARK   70  A    between atoms: _161  and  _164
REMARK   71  A    between atoms: _164  and  _165
REMARK   72  A    between atoms: _171  and  _173
REMARK   73  A    between atoms: _173  and  _174
REMARK   74  A    between atoms: _173  and  _176
REMARK   75  A    between atoms: _176  and  _177
REMARK   76  A    between atoms: _177  and  _178
REMARK   77  A    between atoms: _180  and  _182
REMARK   78  A    between atoms: _182  and  _183
REMARK   79  A    between atoms: _182  and  _185
REMARK   80  A    between atoms: _185  and  _186
REMARK   81  A    between atoms: _189  and  _191
REMARK   82  A    between atoms: _191  and  _192
REMARK   83  A    between atoms: _191  and  _194
REMARK   84  A    between atoms: _194  and  _195
REMARK   85  A    between atoms: _199  and  _200
REMARK   86  A    between atoms: _205  and  _207
REMARK   87  A    between atoms: _207  and  _208
REMARK   88  A    between atoms: _211  and  _213
REMARK   89  A    between atoms: _213  and  _214
REMARK   90  A    between atoms: _213  and  _216
REMARK   91  A    between atoms: _216  and  _217
REMARK   92  A    between atoms: _222  and  _224
REMARK   93  A    between atoms: _224  and  _225
REMARK   94  A    between atoms: _224  and  _227
REMARK   95  A    between atoms: _227  and  _228
REMARK   96  A    between atoms: _231  and  _233
REMARK   97  A    between atoms: _233  and  _234
REMARK   98  A    between atoms: _233  and  _236
REMARK   99  A    between atoms: _236  and  _237
REMARK  100  A    between atoms: _240  and  _242
REMARK  101  A    between atoms: _242  and  _243
REMARK  102  A    between atoms: _245  and  _247
REMARK  103  A    between atoms: _247  and  _248
REMARK  104  A    between atoms: _247  and  _250
REMARK  105  A    between atoms: _250  and  _251
REMARK  106  A    between atoms: _251  and  _252
REMARK  107  A    between atoms: _252  and  _253
REMARK  108  A    between atoms: _262  and  _264
REMARK  109  A    between atoms: _264  and  _265
REMARK  110  A    between atoms: _264  and  _267
REMARK  111  A    between atoms: _267  and  _268
REMARK  112  A    between atoms: _273  and  _275
REMARK  113  A    between atoms: _275  and  _276
REMARK  114  A    between atoms: _275  and  _278
REMARK  115  A    between atoms: _278  and  _279
REMARK  116  A    between atoms: _279  and  _280
REMARK  117  A    between atoms: _280  and  _281
REMARK  118  A    between atoms: _290  and  _292
REMARK  119  A    between atoms: _292  and  _293
REMARK  120  A    between atoms: _292  and  _295
REMARK  121  A    between atoms: _295  and  _296
REMARK  122  A    between atoms: _302  and  _304
REMARK  123  A    between atoms: _304  and  _305
REMARK  124  A    between atoms: _304  and  _307
REMARK  125  A    between atoms: _307  and  _308
REMARK  126  A    between atoms: _311  and  _313
REMARK  127  A    between atoms: _313  and  _314
REMARK  128  A    between atoms: _313  and  _316
REMARK  129  A    between atoms: _316  and  _317
REMARK  130  A    between atoms: _320  and  _322
REMARK  131  A    between atoms: _322  and  _323
REMARK  132  A    between atoms: _322  and  _325
REMARK  133  A    between atoms: _325  and  _326
REMARK  134  A    between atoms: _329  and  _331
REMARK  135  A    between atoms: _331  and  _332
REMARK  136  A    between atoms: _331  and  _334
REMARK  137  A    between atoms: _334  and  _335
REMARK  138  A    between atoms: _338  and  _340
REMARK  139  A    between atoms: _340  and  _341
REMARK  140  A    between atoms: _343  and  _345
REMARK  141  A    between atoms: _345  and  _346
REMARK  142  A    between atoms: _349  and  _351
REMARK  143  A    between atoms: _351  and  _352
REMARK  144  A    between atoms: _351  and  _354
REMARK  145  A    between atoms: _354  and  _355
REMARK  146  A    between atoms: _358  and  _360
REMARK  147  A    between atoms: _360  and  _361
REMARK  148  A    between atoms: _360  and  _363
REMARK  149  A    between atoms: _363  and  _364
REMARK  150  A    between atoms: _367  and  _369
REMARK  151  A    between atoms: _369  and  _370
REMARK  152  A    between atoms: _369  and  _372
REMARK  153  A    between atoms: _372  and  _373
REMARK  154  A    between atoms: _376  and  _378
REMARK  155  A    between atoms: _378  and  _379
REMARK  156  A    between atoms: _378  and  _381
REMARK  157  A    between atoms: _381  and  _382
REMARK  158  A    between atoms: _385  and  _387
REMARK  159  A    between atoms: _387  and  _388
REMARK  160  A    between atoms: _387  and  _390
REMARK  161  A    between atoms: _390  and  _391
REMARK  162  A    between atoms: _391  and  _392
REMARK  163  A    between atoms: _395  and  _397
REMARK  164  A    between atoms: _397  and  _398
REMARK  165  A    between atoms: _397  and  _400
REMARK  166  A    between atoms: _400  and  _401
REMARK  167  A    between atoms: _401  and  _402
REMARK  168  A    between atoms: _402  and  _403
REMARK  169  A    between atoms: _403  and  _404
REMARK  170  A    between atoms: _408  and  _410
REMARK  171  A    between atoms: _410  and  _411
REMARK  172  A    between atoms: _410  and  _413
REMARK  173  A    between atoms: _416  and  _418
REMARK  174  A    between atoms: _418  and  _419
REMARK  175  A    between atoms: _418  and  _421
REMARK  176  A    between atoms: _424  and  _426
REMARK  177  A    between atoms: _426  and  _427
REMARK  178  A    between atoms: _429  and  _431
REMARK  179  A    between atoms: _431  and  _432
REMARK  180  A    between atoms: _434  and  _436
REMARK  181  A    between atoms: _436  and  _437
REMARK  182  A    between atoms: _436  and  _439
REMARK  183  A    between atoms: _439  and  _440
REMARK  184  A    between atoms: _443  and  _445
REMARK  185  A    between atoms: _445  and  _446
REMARK  186  A    between atoms: _448  and  _450
REMARK  187  A    between atoms: _450  and  _451
REMARK  188  A    between atoms: _453  and  _455
REMARK  189  A    between atoms: _455  and  _456
REMARK  190  A    between atoms: _455  and  _458
REMARK  191  A    between atoms: _458  and  _459
REMARK  192  A    between atoms: _459  and  _460
REMARK  193  A    between atoms: _462  and  _464
REMARK  194  A    between atoms: _464  and  _465
REMARK  195  A    between atoms: _464  and  _467
REMARK  196  A    between atoms: _470  and  _472
REMARK  197  A    between atoms: _472  and  _473
REMARK  198  A    between atoms: _472  and  _475
REMARK  199  A    between atoms: _475  and  _476
REMARK  200  A    between atoms: _480  and  _481
REMARK  201  A    between atoms: _486  and  _488
REMARK  202  A    between atoms: _488  and  _489
REMARK  203  A    between atoms: _488  and  _491
REMARK  204  A    between atoms: _491  and  _492
REMARK  205  A    between atoms: _496  and  _497
REMARK  206  A    between atoms: _502  and  _504
REMARK  207  A    between atoms: _504  and  _505
REMARK  208  A    between atoms: _508  and  _510
REMARK  209  A    between atoms: _510  and  _511
REMARK  210  A    between atoms: _510  and  _513
REMARK  211  A    between atoms: _513  and  _514
REMARK  212  A    between atoms: _519  and  _521
REMARK  213  A    between atoms: _521  and  _522
REMARK  214  A    between atoms: _521  and  _524
REMARK  215  A    between atoms: _524  and  _525
REMARK  216  A    between atoms: _528  and  _530
REMARK  217  A    between atoms: _530  and  _531
REMARK  218  A    between atoms: _530  and  _533
REMARK  219  A    between atoms: _533  and  _534
REMARK  220  A    between atoms: _537  and  _539
REMARK  221  A    between atoms: _539  and  _540
REMARK  222  A    between atoms: _542  and  _544
REMARK  223  A    between atoms: _544  and  _545
REMARK  224  A    between atoms: _544  and  _547
REMARK  225  A    between atoms: _547  and  _548
REMARK  226  A    between atoms: _548  and  _549
REMARK  227  A    between atoms: _549  and  _550
REMARK  228  A    between atoms: _559  and  _561
REMARK  229  A    between atoms: _561  and  _562
REMARK  230  A    between atoms: _561  and  _564
REMARK  231  A    between atoms: _564  and  _565
REMARK                            x       y       z     vdW  Elec       q    Type
REMARK                         _______ _______ _______ _____ _____    ______ ____
ROOT
ATOM      1  CA  ILE A   6      -9.082  47.325   9.115  0.00  0.00    +0.149 C 
ENDROOT
BRANCH   1   2
ATOM      2  C   ILE A   6      -8.208  47.712  10.307  0.00  0.00    +0.241 C 
ATOM      3  O   ILE A   6      -8.719  47.927  11.396  0.00  0.00    -0.273 OA
ATOM      4  N   ILE A   7      -6.902  47.850  10.083  0.00  0.00    -0.297 N 
ATOM      5  H   ILE A   7      -6.522  47.609   9.145  0.00  0.00    +0.150 HD
BRANCH   4   6
ATOM      6  CA  ILE A   7      -5.987  48.331  11.118  0.00  0.00    +0.149 C 
BRANCH   6   7
ATOM      7  C   ILE A   7      -5.778  49.808  10.846  0.00  0.00    +0.241 C 
ATOM      8  N   GLY A   8      -6.243  50.657  11.763  0.00  0.00    -0.295 N 
ATOM      9  H   GLY A   8      -6.641  50.267  12.641  0.00  0.00    +0.150 HD
ATOM     10  O   ILE A   7      -5.228  50.162   9.815  0.00  0.00    -0.273 OA
BRANCH   8  11
ATOM     11  CA  GLY A   8      -6.221  52.109  11.594  0.00  0.00    +0.176 C 
BRANCH  11  12
ATOM     12  C   GLY A   8      -5.022  52.731  12.284  0.00  0.00    +0.243 C 
ATOM     13  O   GLY A   8      -4.208  52.035  12.909  0.00  0.00    -0.273 OA
ATOM     14  N   ARG A   9      -4.905  54.047  12.181  0.00  0.00    -0.297 N 
ATOM     15  H   ARG A   9      -5.685  54.603  11.775  0.00  0.00    +0.150 HD
BRANCH  14  16
ATOM     16  CA  ARG A   9      -3.679  54.733  12.637  0.00  0.00    +0.149 C 
BRANCH  16  17
ATOM     17  C   ARG A   9      -3.421  54.560  14.142  0.00  0.00    +0.241 C 
ATOM     18  N   ASN A  10      -4.485  54.360  14.930  0.00  0.00    -0.298 N 
ATOM     19  H   ASN A  10      -5.441  54.418  14.524  0.00  0.00    +0.150 HD
ATOM     20  O   ARG A   9      -2.251  54.591  14.565  0.00  0.00    -0.273 OA
BRANCH  18  21
ATOM     21  CA  ASN A  10      -4.322  54.059  16.365  0.00  0.00    +0.146 C 
BRANCH  21  22
ATOM     22  C   ASN A  10      -3.392  52.886  16.662  0.00  0.00    +0.227 C 
ATOM     23  O   ASN A  10      -2.662  52.914  17.653  0.00  0.00    -0.286 OA
ENDBRANCH  21  22
BRANCH  21  24
ATOM     24  CB  ASN A  10      -5.667  53.903  17.107  0.00  0.00    +0.112 C 
BRANCH  24  25
ATOM     25  CG  ASN A  10      -6.375  52.594  16.825  0.00  0.00    +0.222 C 
ATOM     26  ND2 ASN A  10      -6.685  51.874  17.880  0.00  0.00    -0.329 N 
ATOM     27 HD21 ASN A  10      -6.408  52.196  18.829  0.00  0.00    +0.145 HD
ATOM     28 HD22 ASN A  10      -7.208  50.982  17.766  0.00  0.00    +0.145 HD
ATOM     29  OD1 ASN A  10      -6.684  52.250  15.679  0.00  0.00    -0.275 OA
ENDBRANCH  24  25
ENDBRANCH  21  24
ENDBRANCH  18  21
ENDBRANCH  16  17
BRANCH  16  30
ATOM     30  CB  ARG A   9      -3.674  56.218  12.242  0.00  0.00    +0.033 C 
BRANCH  30  31
ATOM     31  CG  ARG A   9      -3.725  56.478  10.735  0.00  0.00    +0.045 C 
BRANCH  31  32
ATOM     32  CD  ARG A   9      -3.791  57.982  10.417  0.00  0.00    +0.174 C 
BRANCH  32  33
ATOM     33  NE  ARG A   9      -4.993  58.598  10.980  0.00  0.00    -0.265 N 
ATOM     34  CZ  ARG A   9      -5.028  59.309  12.110  0.00  0.00    +0.342 C 
ATOM     35  NH2 ARG A   9      -3.922  59.514  12.825  0.00  0.00    -0.292 N 
ATOM     36 HH21 ARG A   9      -3.966  60.070  13.703  0.00  0.00    +0.255 HD
ATOM     37 HH22 ARG A   9      -3.015  59.118  12.505  0.00  0.00    +0.255 HD
ATOM     38  NH1 ARG A   9      -6.179  59.799  12.536  0.00  0.00    -0.292 N 
ATOM     39 HH11 ARG A   9      -6.215  60.354  13.415  0.00  0.00    +0.255 HD
ATOM     40 HH12 ARG A   9      -7.049  59.630  11.992  0.00  0.00    +0.255 HD
ATOM     41  HE  ARG A   9      -5.886  58.473  10.462  0.00  0.00    +0.259 HD
ENDBRANCH  32  33
ENDBRANCH  31  32
ENDBRANCH  30  31
ENDBRANCH  16  30
ENDBRANCH  14  16
ENDBRANCH  11  12
ENDBRANCH   8  11
ENDBRANCH   6   7
BRANCH   6  42
ATOM     42  CB  ILE A   7      -4.631  47.579  11.091  0.00  0.00    +0.027 C 
ATOM     43  CG2 ILE A   7      -3.689  48.086  12.186  0.00  0.00    +0.002 C 
BRANCH  42  44
ATOM     44  CG1 ILE A   7      -4.839  46.038  11.067  0.00  0.00    +0.002 C 
ATOM     45  CD1 ILE A   7      -5.449  45.419  12.308  0.00  0.00    +0.000 C 
ENDBRANCH  42  44
ENDBRANCH   6  42
ENDBRANCH   4   6
ENDBRANCH   1   2
BRANCH   1  47
ATOM     46  C   ASN A   5      -9.832  45.043   8.547  0.00  0.00    +0.241 C 
ATOM     47  N   ILE A   6      -9.809  46.085   9.379  0.00  0.00    -0.297 N 
ATOM     48  H   ILE A   6     -10.341  46.011  10.270  0.00  0.00    +0.150 HD
ATOM     49  O   ASN A   5      -9.143  44.967   7.522  0.00  0.00    -0.273 OA
BRANCH  46  50
ATOM     50  CA  ASN A   5     -10.817  43.908   8.913  0.00  0.00    +0.158 C 
BRANCH  50  52
ATOM     51  C   ALA A   4     -12.386  44.510   7.186  0.00  0.00    +0.241 C 
ATOM     52  N   ASN A   5     -11.614  43.593   7.744  0.00  0.00    -0.297 N 
ATOM     53  H   ASN A   5     -11.578  42.635   7.340  0.00  0.00    +0.150 HD
ATOM     54  O   ALA A   4     -12.670  45.557   7.741  0.00  0.00    -0.273 OA
BRANCH  51  55
ATOM     55  CA  ALA A   4     -12.923  44.188   5.815  0.00  0.00    +0.149 C 
ATOM     56  CB  ALA A   4     -12.068  44.869   4.741  0.00  0.00    +0.031 C 
BRANCH  55  58
ATOM     57  C   PRO A   3     -15.192  43.969   4.924  0.00  0.00    +0.241 C 
ATOM     58  N   ALA A   4     -14.319  44.610   5.705  0.00  0.00    -0.297 N 
ATOM     59  H   ALA A   4     -14.641  45.434   6.251  0.00  0.00    +0.150 HD
ATOM     60  O   PRO A   3     -14.893  42.976   4.255  0.00  0.00    -0.273 OA
BRANCH  57  67
ATOM     61  C   THR A   2     -17.138  45.076   7.177  0.00  0.00    +0.246 C 
ATOM     62  O   THR A   2     -17.140  43.889   7.477  0.00  0.00    -0.273 OA
ATOM     63  N   PRO A   3     -16.920  45.497   5.919  0.00  0.00    -0.272 N 
ATOM     64  CD  PRO A   3     -17.037  46.880   5.405  0.00  0.00    +0.094 C 
ATOM     65  CG  PRO A   3     -17.387  46.662   3.971  0.00  0.00    +0.024 C 
ATOM     66  CB  PRO A   3     -16.734  45.387   3.565  0.00  0.00    +0.031 C 
ATOM     67  CA  PRO A   3     -16.612  44.542   4.845  0.00  0.00    +0.152 C 
BRANCH  61  68
ATOM     68  CA  THR A   2     -17.382  46.140   8.259  0.00  0.00    +0.176 C 
BRANCH  68  70
ATOM     69  C   PRO A   1     -19.616  45.383   9.024  0.00  0.00    +0.239 C 
ATOM     70  N   THR A   2     -18.333  45.668   9.277  0.00  0.00    -0.295 N 
ATOM     71  H   THR A   2     -17.988  45.549  10.251  0.00  0.00    +0.150 HD
ATOM     72  O   PRO A   1     -20.147  45.546   7.925  0.00  0.00    -0.274 OA
BRANCH  69  77
ATOM     73  N   PRO A   1     -20.218  45.451  11.482  0.00  0.00    -0.210 NA
ATOM     74  CD  PRO A   1     -21.312  46.364  11.861  0.00  0.00    +0.089 C 
ATOM     75  CG  PRO A   1     -22.332  46.174  10.775  0.00  0.00    +0.021 C 
ATOM     76  CB  PRO A   1     -21.940  44.989   9.960  0.00  0.00    +0.028 C 
ATOM     77  CA  PRO A   1     -20.438  44.811  10.187  0.00  0.00    +0.149 C 
ENDBRANCH  69  77
ENDBRANCH  68  70
BRANCH  68  78
ATOM     78  CB  THR A   2     -16.017  46.536   8.894  0.00  0.00    +0.137 C 
ATOM     79  CG2 THR A   2     -15.457  45.418   9.800  0.00  0.00    +0.034 C 
BRANCH  78  80
ATOM     80  OG1 THR A   2     -15.055  46.797   7.864  0.00  0.00    -0.382 OA
ATOM     81  HG1 THR A   2     -14.191  47.048   8.277  0.00  0.00    +0.210 HD
ENDBRANCH  78  80
ENDBRANCH  68  78
ENDBRANCH  61  68
ENDBRANCH  57  67
ENDBRANCH  55  58
ENDBRANCH  51  55
ENDBRANCH  50  52
BRANCH  50  82
ATOM     82  CB  ASN A   5     -10.100  42.649   9.414  0.00  0.00    +0.114 C 
BRANCH  82  83
ATOM     83  CG  ASN A   5     -11.073  41.507   9.722  0.00  0.00    +0.222 C 
ATOM     84  OD1 ASN A   5     -12.130  41.725  10.339  0.00  0.00    -0.275 OA
ATOM     85  ND2 ASN A   5     -10.711  40.281   9.315  0.00  0.00    -0.329 N 
ATOM     86 HD21 ASN A   5     -11.325  39.465   9.513  0.00  0.00    +0.145 HD
ATOM     87 HD22 ASN A   5      -9.817  40.147   8.801  0.00  0.00    +0.145 HD
ENDBRANCH  82  83
ENDBRANCH  50  82
ENDBRANCH  46  50
ENDBRANCH   1  47
BRANCH   1  88
ATOM     88  CB  ILE A   6     -10.077  48.493   8.870  0.00  0.00    +0.027 C 
ATOM     89  CG2 ILE A   6      -9.394  49.861   8.938  0.00  0.00    +0.002 C 
BRANCH  88  90
ATOM     90  CG1 ILE A   6     -10.801  48.342   7.534  0.00  0.00    +0.002 C 
ATOM     91  CD1 ILE A   6     -11.946  49.340   7.436  0.00  0.00    +0.000 C 
ENDBRANCH  88  90
ENDBRANCH   1  88
TORSDOF 32
REMARK  Name = ../refined-set-2016/4m8y/4m8y_pocket.pdb
REMARK  231 active torsions:
REMARK  status: ('A' for Active; 'I' for Inactive)
REMARK    1  A    between atoms: _1  and  _3
REMARK    2  A    between atoms: _3  and  _4
REMARK    3  A    between atoms: _3  and  _6
REMARK    4  A    between atoms: _6  and  _7
REMARK    5  A    between atoms: _7  and  _8
REMARK    6  A    between atoms: _8  and  _9
REMARK    7  A    between atoms: _18  and  _20
REMARK    8  A    between atoms: _20  and  _21
REMARK    9  A    between atoms: _20  and  _23
REMARK   10  A    between atoms: _23  and  _24
REMARK   11  A    between atoms: _27  and  _29
REMARK   12  A    between atoms: _29  and  _30
REMARK   13  A    between atoms: _29  and  _32
REMARK   14  A    between atoms: _32  and  _33
REMARK   15  A    between atoms: _36  and  _38
REMARK   16  A    between atoms: _38  and  _39
REMARK   17  A    between atoms: _38  and  _41
REMARK   18  A    between atoms: _41  and  _42
REMARK   19  A    between atoms: _45  and  _47
REMARK   20  A    between atoms: _47  and  _48
REMARK   21  A    between atoms: _47  and  _50
REMARK   22  A    between atoms: _50  and  _51
REMARK   23  A    between atoms: _54  and  _56
REMARK   24  A    between atoms: _56  and  _57
REMARK   25  A    between atoms: _59  and  _61
REMARK   26  A    between atoms: _61  and  _62
REMARK   27  A    between atoms: _65  and  _67
REMARK   28  A    between atoms: _67  and  _68
REMARK   29  A    between atoms: _67  and  _70
REMARK   30  A    between atoms: _70  and  _71
REMARK   31  A    between atoms: _74  and  _76
REMARK   32  A    between atoms: _76  and  _77
REMARK   33  A    between atoms: _76  and  _79
REMARK   34  A    between atoms: _79  and  _80
REMARK   35  A    between atoms: _83  and  _85
REMARK   36  A    between atoms: _85  and  _86
REMARK   37  A    between atoms: _85  and  _88
REMARK   38  A    between atoms: _88  and  _89
REMARK   39  A    between atoms: _92  and  _94
REMARK   40  A    between atoms: _94  and  _95
REMARK   41  A    between atoms: _94  and  _97
REMARK   42  A    between atoms: _97  and  _98
REMARK   43  A    between atoms: _101  and  _103
REMARK   44  A    between atoms: _103  and  _104
REMARK   45  A    between atoms: _103  and  _106
REMARK   46  A    between atoms: _106  and  _107
REMARK   47  A    between atoms: _107  and  _108
REMARK   48  A    between atoms: _108  and  _109
REMARK   49  A    between atoms: _109  and  _110
REMARK   50  A    between atoms: _114  and  _116
REMARK   51  A    between atoms: _116  and  _117
REMARK   52  A    between atoms: _116  and  _119
REMARK   53  A    between atoms: _122  and  _124
REMARK   54  A    between atoms: _124  and  _125
REMARK   55  A    between atoms: _124  and  _127
REMARK   56  A    between atoms: _130  and  _132
REMARK   57  A    between atoms: _132  and  _133
REMARK   58  A    between atoms: _135  and  _137
REMARK   59  A    between atoms: _137  and  _138
REMARK   60  A    between atoms: _140  and  _142
REMARK   61  A    between atoms: _142  and  _143
REMARK   62  A    between atoms: _142  and  _145
REMARK   63  A    between atoms: _145  and  _146
REMARK   64  A    between atoms: _149  and  _151
REMARK   65  A    between atoms: _151  and  _152
REMARK   66  A    between atoms: _154  and  _156
REMARK   67  A    between atoms: _156  and  _157
REMARK   68  A    between atoms: _159  and  _161
REMARK   69  A    between atoms: _161  and  _162
REMARK   70  A    between atoms: _161  and  _164
REMARK   71  A    between atoms: _164  and  _165
REMARK   72  A    between atoms: _171  and  _173
REMARK   73  A    between atoms: _173  and  _174
REMARK   74  A    between atoms: _173  and  _176
REMARK   75  A    between atoms: _176  and  _177
REMARK   76  A    between atoms: _177  and  _178
REMARK   77  A    between atoms: _180  and  _182
REMARK   78  A    between atoms: _182  and  _183
REMARK   79  A    between atoms: _182  and  _185
REMARK   80  A    between atoms: _185  and  _186
REMARK   81  A    between atoms: _189  and  _191
REMARK   82  A    between atoms: _191  and  _192
REMARK   83  A    between atoms: _191  and  _194
REMARK   84  A    between atoms: _194  and  _195
REMARK   85  A    between atoms: _199  and  _200
REMARK   86  A    between atoms: _205  and  _207
REMARK   87  A    between atoms: _207  and  _208
REMARK   88  A    between atoms: _211  and  _213
REMARK   89  A    between atoms: _213  and  _214
REMARK   90  A    between atoms: _213  and  _216
REMARK   91  A    between atoms: _216  and  _217
REMARK   92  A    between atoms: _222  and  _224
REMARK   93  A    between atoms: _224  and  _225
REMARK   94  A    between atoms: _224  and  _227
REMARK   95  A    between atoms: _227  and  _228
REMARK   96  A    between atoms: _231  and  _233
REMARK   97  A    between atoms: _233  and  _234
REMARK   98  A    between atoms: _233  and  _236
REMARK   99  A    between atoms: _236  and  _237
REMARK  100  A    between atoms: _240  and  _242
REMARK  101  A    between atoms: _242  and  _243
REMARK  102  A    between atoms: _245  and  _247
REMARK  103  A    between atoms: _247  and  _248
REMARK  104  A    between atoms: _247  and  _250
REMARK  105  A    between atoms: _250  and  _251
REMARK  106  A    between atoms: _251  and  _252
REMARK  107  A    between atoms: _252  and  _253
REMARK  108  A    between atoms: _262  and  _264
REMARK  109  A    between atoms: _264  and  _265
REMARK  110  A    between atoms: _264  and  _267
REMARK  111  A    between atoms: _267  and  _268
REMARK  112  A    between atoms: _273  and  _275
REMARK  113  A    between atoms: _275  and  _276
REMARK  114  A    between atoms: _275  and  _278
REMARK  115  A    between atoms: _278  and  _279
REMARK  116  A    between atoms: _279  and  _280
REMARK  117  A    between atoms: _280  and  _281
REMARK  118  A    between atoms: _290  and  _292
REMARK  119  A    between atoms: _292  and  _293
REMARK  120  A    between atoms: _292  and  _295
REMARK  121  A    between atoms: _295  and  _296
REMARK  122  A    between atoms: _302  and  _304
REMARK  123  A    between atoms: _304  and  _305
REMARK  124  A    between atoms: _304  and  _307
REMARK  125  A    between atoms: _307  and  _308
REMARK  126  A    between atoms: _311  and  _313
REMARK  127  A    between atoms: _313  and  _314
REMARK  128  A    between atoms: _313  and  _316
REMARK  129  A    between atoms: _316  and  _317
REMARK  130  A    between atoms: _320  and  _322
REMARK  131  A    between atoms: _322  and  _323
REMARK  132  A    between atoms: _322  and  _325
REMARK  133  A    between atoms: _325  and  _326
REMARK  134  A    between atoms: _329  and  _331
REMARK  135  A    between atoms: _331  and  _332
REMARK  136  A    between atoms: _331  and  _334
REMARK  137  A    between atoms: _334  and  _335
REMARK  138  A    between atoms: _338  and  _340
REMARK  139  A    between atoms: _340  and  _341
REMARK  140  A    between atoms: _343  and  _345
REMARK  141  A    between atoms: _345  and  _346
REMARK  142  A    between atoms: _349  and  _351
REMARK  143  A    between atoms: _351  and  _352
REMARK  144  A    between atoms: _351  and  _354
REMARK  145  A    between atoms: _354  and  _355
REMARK  146  A    between atoms: _358  and  _360
REMARK  147  A    between atoms: _360  and  _361
REMARK  148  A    between atoms: _360  and  _363
REMARK  149  A    between atoms: _363  and  _364
REMARK  150  A    between atoms: _367  and  _369
REMARK  151  A    between atoms: _369  and  _370
REMARK  152  A    between atoms: _369  and  _372
REMARK  153  A    between atoms: _372  and  _373
REMARK  154  A    between atoms: _376  and  _378
REMARK  155  A    between atoms: _378  and  _379
REMARK  156  A    between atoms: _378  and  _381
REMARK  157  A    between atoms: _381  and  _382
REMARK  158  A    between atoms: _385  and  _387
REMARK  159  A    between atoms: _387  and  _388
REMARK  160  A    between atoms: _387  and  _390
REMARK  161  A    between atoms: _390  and  _391
REMARK  162  A    between atoms: _391  and  _392
REMARK  163  A    between atoms: _395  and  _397
REMARK  164  A    between atoms: _397  and  _398
REMARK  165  A    between atoms: _397  and  _400
REMARK  166  A    between atoms: _400  and  _401
REMARK  167  A    between atoms: _401  and  _402
REMARK  168  A    between atoms: _402  and  _403
REMARK  169  A    between atoms: _403  and  _404
REMARK  170  A    between atoms: _408  and  _410
REMARK  171  A    between atoms: _410  and  _411
REMARK  172  A    between atoms: _410  and  _413
REMARK  173  A    between atoms: _416  and  _418
REMARK  174  A    between atoms: _418  and  _419
REMARK  175  A    between atoms: _418  and  _421
REMARK  176  A    between atoms: _424  and  _426
REMARK  177  A    between atoms: _426  and  _427
REMARK  178  A    between atoms: _429  and  _431
REMARK  179  A    between atoms: _431  and  _432
REMARK  180  A    between atoms: _434  and  _436
REMARK  181  A    between atoms: _436  and  _437
REMARK  182  A    between atoms: _436  and  _439
REMARK  183  A    between atoms: _439  and  _440
REMARK  184  A    between atoms: _443  and  _445
REMARK  185  A    between atoms: _445  and  _446
REMARK  186  A    between atoms: _448  and  _450
REMARK  187  A    between atoms: _450  and  _451
REMARK  188  A    between atoms: _453  and  _455
REMARK  189  A    between atoms: _455  and  _456
REMARK  190  A    between atoms: _455  and  _458
REMARK  191  A    between atoms: _458  and  _459
REMARK  192  A    between atoms: _459  and  _460
REMARK  193  A    between atoms: _462  and  _464
REMARK  194  A    between atoms: _464  and  _465
REMARK  195  A    between atoms: _464  and  _467
REMARK  196  A    between atoms: _470  and  _472
REMARK  197  A    between atoms: _472  and  _473
REMARK  198  A    between atoms: _472  and  _475
REMARK  199  A    between atoms: _475  and  _476
REMARK  200  A    between atoms: _480  and  _481
REMARK  201  A    between atoms: _486  and  _488
REMARK  202  A    between atoms: _488  and  _489
REMARK  203  A    between atoms: _488  and  _491
REMARK  204  A    between atoms: _491  and  _492
REMARK  205  A    between atoms: _496  and  _497
REMARK  206  A    between atoms: _502  and  _504
REMARK  207  A    between atoms: _504  and  _505
REMARK  208  A    between atoms: _508  and  _510
REMARK  209  A    between atoms: _510  and  _511
REMARK  210  A    between atoms: _510  and  _513
REMARK  211  A    between atoms: _513  and  _514
REMARK  212  A    between atoms: _519  and  _521
REMARK  213  A    between atoms: _521  and  _522
REMARK  214  A    between atoms: _521  and  _524
REMARK  215  A    between atoms: _524  and  _525
REMARK  216  A    between atoms: _528  and  _530
REMARK  217  A    between atoms: _530  and  _531
REMARK  218  A    between atoms: _530  and  _533
REMARK  219  A    between atoms: _533  and  _534
REMARK  220  A    between atoms: _537  and  _539
REMARK  221  A    between atoms: _539  and  _540
REMARK  222  A    between atoms: _542  and  _544
REMARK  223  A    between atoms: _544  and  _545
REMARK  224  A    between atoms: _544  and  _547
REMARK  225  A    between atoms: _547  and  _548
REMARK  226  A    between atoms: _548  and  _549
REMARK  227  A    between atoms: _549  and  _550
REMARK  228  A    between atoms: _559  and  _561
REMARK  229  A    between atoms: _561  and  _562
REMARK  230  A    between atoms: _561  and  _564
REMARK  231  A    between atoms: _564  and  _565
REMARK                            x       y       z     vdW  Elec       q    Type
REMARK                         _______ _______ _______ _____ _____    ______ ____
ROOT
ATOM      1  O   HOH     1     -10.346  55.755  -9.054  0.00  0.00    +0.000 OA
ENDROOT
TORSDOF 0
REMARK  Name = ../refined-set-2016/4m8y/4m8y_pocket.pdb
REMARK  231 active torsions:
REMARK  status: ('A' for Active; 'I' for Inactive)
REMARK    1  A    between atoms: _1  and  _3
REMARK    2  A    between atoms: _3  and  _4
REMARK    3  A    between atoms: _3  and  _6
REMARK    4  A    between atoms: _6  and  _7
REMARK    5  A    between atoms: _7  and  _8
REMARK    6  A    between atoms: _8  and  _9
REMARK    7  A    between atoms: _18  and  _20
REMARK    8  A    between atoms: _20  and  _21
REMARK    9  A    between atoms: _20  and  _23
REMARK   10  A    between atoms: _23  and  _24
REMARK   11  A    between atoms: _27  and  _29
REMARK   12  A    between atoms: _29  and  _30
REMARK   13  A    between atoms: _29  and  _32
REMARK   14  A    between atoms: _32  and  _33
REMARK   15  A    between atoms: _36  and  _38
REMARK   16  A    between atoms: _38  and  _39
REMARK   17  A    between atoms: _38  and  _41
REMARK   18  A    between atoms: _41  and  _42
REMARK   19  A    between atoms: _45  and  _47
REMARK   20  A    between atoms: _47  and  _48
REMARK   21  A    between atoms: _47  and  _50
REMARK   22  A    between atoms: _50  and  _51
REMARK   23  A    between atoms: _54  and  _56
REMARK   24  A    between atoms: _56  and  _57
REMARK   25  A    between atoms: _59  and  _61
REMARK   26  A    between atoms: _61  and  _62
REMARK   27  A    between atoms: _65  and  _67
REMARK   28  A    between atoms: _67  and  _68
REMARK   29  A    between atoms: _67  and  _70
REMARK   30  A    between atoms: _70  and  _71
REMARK   31  A    between atoms: _74  and  _76
REMARK   32  A    between atoms: _76  and  _77
REMARK   33  A    between atoms: _76  and  _79
REMARK   34  A    between atoms: _79  and  _80
REMARK   35  A    between atoms: _83  and  _85
REMARK   36  A    between atoms: _85  and  _86
REMARK   37  A    between atoms: _85  and  _88
REMARK   38  A    between atoms: _88  and  _89
REMARK   39  A    between atoms: _92  and  _94
REMARK   40  A    between atoms: _94  and  _95
REMARK   41  A    between atoms: _94  and  _97
REMARK   42  A    between atoms: _97  and  _98
REMARK   43  A    between atoms: _101  and  _103
REMARK   44  A    between atoms: _103  and  _104
REMARK   45  A    between atoms: _103  and  _106
REMARK   46  A    between atoms: _106  and  _107
REMARK   47  A    between atoms: _107  and  _108
REMARK   48  A    between atoms: _108  and  _109
REMARK   49  A    between atoms: _109  and  _110
REMARK   50  A    between atoms: _114  and  _116
REMARK   51  A    between atoms: _116  and  _117
REMARK   52  A    between atoms: _116  and  _119
REMARK   53  A    between atoms: _122  and  _124
REMARK   54  A    between atoms: _124  and  _125
REMARK   55  A    between atoms: _124  and  _127
REMARK   56  A    between atoms: _130  and  _132
REMARK   57  A    between atoms: _132  and  _133
REMARK   58  A    between atoms: _135  and  _137
REMARK   59  A    between atoms: _137  and  _138
REMARK   60  A    between atoms: _140  and  _142
REMARK   61  A    between atoms: _142  and  _143
REMARK   62  A    between atoms: _142  and  _145
REMARK   63  A    between atoms: _145  and  _146
REMARK   64  A    between atoms: _149  and  _151
REMARK   65  A    between atoms: _151  and  _152
REMARK   66  A    between atoms: _154  and  _156
REMARK   67  A    between atoms: _156  and  _157
REMARK   68  A    between atoms: _159  and  _161
REMARK   69  A    between atoms: _161  and  _162
REMARK   70  A    between atoms: _161  and  _164
REMARK   71  A    between atoms: _164  and  _165
REMARK   72  A    between atoms: _171  and  _173
REMARK   73  A    between atoms: _173  and  _174
REMARK   74  A    between atoms: _173  and  _176
REMARK   75  A    between atoms: _176  and  _177
REMARK   76  A    between atoms: _177  and  _178
REMARK   77  A    between atoms: _180  and  _182
REMARK   78  A    between atoms: _182  and  _183
REMARK   79  A    between atoms: _182  and  _185
REMARK   80  A    between atoms: _185  and  _186
REMARK   81  A    between atoms: _189  and  _191
REMARK   82  A    between atoms: _191  and  _192
REMARK   83  A    between atoms: _191  and  _194
REMARK   84  A    between atoms: _194  and  _195
REMARK   85  A    between atoms: _199  and  _200
REMARK   86  A    between atoms: _205  and  _207
REMARK   87  A    between atoms: _207  and  _208
REMARK   88  A    between atoms: _211  and  _213
REMARK   89  A    between atoms: _213  and  _214
REMARK   90  A    between atoms: _213  and  _216
REMARK   91  A    between atoms: _216  and  _217
REMARK   92  A    between atoms: _222  and  _224
REMARK   93  A    between atoms: _224  and  _225
REMARK   94  A    between atoms: _224  and  _227
REMARK   95  A    between atoms: _227  and  _228
REMARK   96  A    between atoms: _231  and  _233
REMARK   97  A    between atoms: _233  and  _234
REMARK   98  A    between atoms: _233  and  _236
REMARK   99  A    between atoms: _236  and  _237
REMARK  100  A    between atoms: _240  and  _242
REMARK  101  A    between atoms: _242  and  _243
REMARK  102  A    between atoms: _245  and  _247
REMARK  103  A    between atoms: _247  and  _248
REMARK  104  A    between atoms: _247  and  _250
REMARK  105  A    between atoms: _250  and  _251
REMARK  106  A    between atoms: _251  and  _252
REMARK  107  A    between atoms: _252  and  _253
REMARK  108  A    between atoms: _262  and  _264
REMARK  109  A    between atoms: _264  and  _265
REMARK  110  A    between atoms: _264  and  _267
REMARK  111  A    between atoms: _267  and  _268
REMARK  112  A    between atoms: _273  and  _275
REMARK  113  A    between atoms: _275  and  _276
REMARK  114  A    between atoms: _275  and  _278
REMARK  115  A    between atoms: _278  and  _279
REMARK  116  A    between atoms: _279  and  _280
REMARK  117  A    between atoms: _280  and  _281
REMARK  118  A    between atoms: _290  and  _292
REMARK  119  A    between atoms: _292  and  _293
REMARK  120  A    between atoms: _292  and  _295
REMARK  121  A    between atoms: _295  and  _296
REMARK  122  A    between atoms: _302  and  _304
REMARK  123  A    between atoms: _304  and  _305
REMARK  124  A    between atoms: _304  and  _307
REMARK  125  A    between atoms: _307  and  _308
REMARK  126  A    between atoms: _311  and  _313
REMARK  127  A    between atoms: _313  and  _314
REMARK  128  A    between atoms: _313  and  _316
REMARK  129  A    between atoms: _316  and  _317
REMARK  130  A    between atoms: _320  and  _322
REMARK  131  A    between atoms: _322  and  _323
REMARK  132  A    between atoms: _322  and  _325
REMARK  133  A    between atoms: _325  and  _326
REMARK  134  A    between atoms: _329  and  _331
REMARK  135  A    between atoms: _331  and  _332
REMARK  136  A    between atoms: _331  and  _334
REMARK  137  A    between atoms: _334  and  _335
REMARK  138  A    between atoms: _338  and  _340
REMARK  139  A    between atoms: _340  and  _341
REMARK  140  A    between atoms: _343  and  _345
REMARK  141  A    between atoms: _345  and  _346
REMARK  142  A    between atoms: _349  and  _351
REMARK  143  A    between atoms: _351  and  _352
REMARK  144  A    between atoms: _351  and  _354
REMARK  145  A    between atoms: _354  and  _355
REMARK  146  A    between atoms: _358  and  _360
REMARK  147  A    between atoms: _360  and  _361
REMARK  148  A    between atoms: _360  and  _363
REMARK  149  A    between atoms: _363  and  _364
REMARK  150  A    between atoms: _367  and  _369
REMARK  151  A    between atoms: _369  and  _370
REMARK  152  A    between atoms: _369  and  _372
REMARK  153  A    between atoms: _372  and  _373
REMARK  154  A    between atoms: _376  and  _378
REMARK  155  A    between atoms: _378  and  _379
REMARK  156  A    between atoms: _378  and  _381
REMARK  157  A    between atoms: _381  and  _382
REMARK  158  A    between atoms: _385  and  _387
REMARK  159  A    between atoms: _387  and  _388
REMARK  160  A    between atoms: _387  and  _390
REMARK  161  A    between atoms: _390  and  _391
REMARK  162  A    between atoms: _391  and  _392
REMARK  163  A    between atoms: _395  and  _397
REMARK  164  A    between atoms: _397  and  _398
REMARK  165  A    between atoms: _397  and  _400
REMARK  166  A    between atoms: _400  and  _401
REMARK  167  A    between atoms: _401  and  _402
REMARK  168  A    between atoms: _402  and  _403
REMARK  169  A    between atoms: _403  and  _404
REMARK  170  A    between atoms: _408  and  _410
REMARK  171  A    between atoms: _410  and  _411
REMARK  172  A    between atoms: _410  and  _413
REMARK  173  A    between atoms: _416  and  _418
REMARK  174  A    between atoms: _418  and  _419
REMARK  175  A    between atoms: _418  and  _421
REMARK  176  A    between atoms: _424  and  _426
REMARK  177  A    between atoms: _426  and  _427
REMARK  178  A    between atoms: _429  and  _431
REMARK  179  A    between atoms: _431  and  _432
REMARK  180  A    between atoms: _434  and  _436
REMARK  181  A    between atoms: _436  and  _437
REMARK  182  A    between atoms: _436  and  _439
REMARK  183  A    between atoms: _439  and  _440
REMARK  184  A    between atoms: _443  and  _445
REMARK  185  A    between atoms: _445  and  _446
REMARK  186  A    between atoms: _448  and  _450
REMARK  187  A    between atoms: _450  and  _451
REMARK  188  A    between atoms: _453  and  _455
REMARK  189  A    between atoms: _455  and  _456
REMARK  190  A    between atoms: _455  and  _458
REMARK  191  A    between atoms: _458  and  _459
REMARK  192  A    between atoms: _459  and  _460
REMARK  193  A    between atoms: _462  and  _464
REMARK  194  A    between atoms: _464  and  _465
REMARK  195  A    between atoms: _464  and  _467
REMARK  196  A    between atoms: _470  and  _472
REMARK  197  A    between atoms: _472  and  _473
REMARK  198  A    between atoms: _472  and  _475
REMARK  199  A    between atoms: _475  and  _476
REMARK  200  A    between atoms: _480  and  _481
REMARK  201  A    between atoms: _486  and  _488
REMARK  202  A    between atoms: _488  and  _489
REMARK  203  A    between atoms: _488  and  _491
REMARK  204  A    between atoms: _491  and  _492
REMARK  205  A    between atoms: _496  and  _497
REMARK  206  A    between atoms: _502  and  _504
REMARK  207  A    between atoms: _504  and  _505
REMARK  208  A    between atoms: _508  and  _510
REMARK  209  A    between atoms: _510  and  _511
REMARK  210  A    between atoms: _510  and  _513
REMARK  211  A    between atoms: _513  and  _514
REMARK  212  A    between atoms: _519  and  _521
REMARK  213  A    between atoms: _521  and  _522
REMARK  214  A    between atoms: _521  and  _524
REMARK  215  A    between atoms: _524  and  _525
REMARK  216  A    between atoms: _528  and  _530
REMARK  217  A    between atoms: _530  and  _531
REMARK  218  A    between atoms: _530  and  _533
REMARK  219  A    between atoms: _533  and  _534
REMARK  220  A    between atoms: _537  and  _539
REMARK  221  A    between atoms: _539  and  _540
REMARK  222  A    between atoms: _542  and  _544
REMARK  223  A    between atoms: _544  and  _545
REMARK  224  A    between atoms: _544  and  _547
REMARK  225  A    between atoms: _547  and  _548
REMARK  226  A    between atoms: _548  and  _549
REMARK  227  A    between atoms: _549  and  _550
REMARK  228  A    between atoms: _559  and  _561
REMARK  229  A    between atoms: _561  and  _562
REMARK  230  A    between atoms: _561  and  _564
REMARK  231  A    between atoms: _564  and  _565
REMARK                            x       y       z     vdW  Elec       q    Type
REMARK                         _______ _______ _______ _____ _____    ______ ____
ROOT
ATOM      1  O   HOH     1     -15.473  53.645   4.108  0.00  0.00    +0.000 OA
ENDROOT
TORSDOF 0
REMARK  Name = ../refined-set-2016/4m8y/4m8y_pocket.pdb
REMARK  231 active torsions:
REMARK  status: ('A' for Active; 'I' for Inactive)
REMARK    1  A    between atoms: _1  and  _3
REMARK    2  A    between atoms: _3  and  _4
REMARK    3  A    between atoms: _3  and  _6
REMARK    4  A    between atoms: _6  and  _7
REMARK    5  A    between atoms: _7  and  _8
REMARK    6  A    between atoms: _8  and  _9
REMARK    7  A    between atoms: _18  and  _20
REMARK    8  A    between atoms: _20  and  _21
REMARK    9  A    between atoms: _20  and  _23
REMARK   10  A    between atoms: _23  and  _24
REMARK   11  A    between atoms: _27  and  _29
REMARK   12  A    between atoms: _29  and  _30
REMARK   13  A    between atoms: _29  and  _32
REMARK   14  A    between atoms: _32  and  _33
REMARK   15  A    between atoms: _36  and  _38
REMARK   16  A    between atoms: _38  and  _39
REMARK   17  A    between atoms: _38  and  _41
REMARK   18  A    between atoms: _41  and  _42
REMARK   19  A    between atoms: _45  and  _47
REMARK   20  A    between atoms: _47  and  _48
REMARK   21  A    between atoms: _47  and  _50
REMARK   22  A    between atoms: _50  and  _51
REMARK   23  A    between atoms: _54  and  _56
REMARK   24  A    between atoms: _56  and  _57
REMARK   25  A    between atoms: _59  and  _61
REMARK   26  A    between atoms: _61  and  _62
REMARK   27  A    between atoms: _65  and  _67
REMARK   28  A    between atoms: _67  and  _68
REMARK   29  A    between atoms: _67  and  _70
REMARK   30  A    between atoms: _70  and  _71
REMARK   31  A    between atoms: _74  and  _76
REMARK   32  A    between atoms: _76  and  _77
REMARK   33  A    between atoms: _76  and  _79
REMARK   34  A    between atoms: _79  and  _80
REMARK   35  A    between atoms: _83  and  _85
REMARK   36  A    between atoms: _85  and  _86
REMARK   37  A    between atoms: _85  and  _88
REMARK   38  A    between atoms: _88  and  _89
REMARK   39  A    between atoms: _92  and  _94
REMARK   40  A    between atoms: _94  and  _95
REMARK   41  A    between atoms: _94  and  _97
REMARK   42  A    between atoms: _97  and  _98
REMARK   43  A    between atoms: _101  and  _103
REMARK   44  A    between atoms: _103  and  _104
REMARK   45  A    between atoms: _103  and  _106
REMARK   46  A    between atoms: _106  and  _107
REMARK   47  A    between atoms: _107  and  _108
REMARK   48  A    between atoms: _108  and  _109
REMARK   49  A    between atoms: _109  and  _110
REMARK   50  A    between atoms: _114  and  _116
REMARK   51  A    between atoms: _116  and  _117
REMARK   52  A    between atoms: _116  and  _119
REMARK   53  A    between atoms: _122  and  _124
REMARK   54  A    between atoms: _124  and  _125
REMARK   55  A    between atoms: _124  and  _127
REMARK   56  A    between atoms: _130  and  _132
REMARK   57  A    between atoms: _132  and  _133
REMARK   58  A    between atoms: _135  and  _137
REMARK   59  A    between atoms: _137  and  _138
REMARK   60  A    between atoms: _140  and  _142
REMARK   61  A    between atoms: _142  and  _143
REMARK   62  A    between atoms: _142  and  _145
REMARK   63  A    between atoms: _145  and  _146
REMARK   64  A    between atoms: _149  and  _151
REMARK   65  A    between atoms: _151  and  _152
REMARK   66  A    between atoms: _154  and  _156
REMARK   67  A    between atoms: _156  and  _157
REMARK   68  A    between atoms: _159  and  _161
REMARK   69  A    between atoms: _161  and  _162
REMARK   70  A    between atoms: _161  and  _164
REMARK   71  A    between atoms: _164  and  _165
REMARK   72  A    between atoms: _171  and  _173
REMARK   73  A    between atoms: _173  and  _174
REMARK   74  A    between atoms: _173  and  _176
REMARK   75  A    between atoms: _176  and  _177
REMARK   76  A    between atoms: _177  and  _178
REMARK   77  A    between atoms: _180  and  _182
REMARK   78  A    between atoms: _182  and  _183
REMARK   79  A    between atoms: _182  and  _185
REMARK   80  A    between atoms: _185  and  _186
REMARK   81  A    between atoms: _189  and  _191
REMARK   82  A    between atoms: _191  and  _192
REMARK   83  A    between atoms: _191  and  _194
REMARK   84  A    between atoms: _194  and  _195
REMARK   85  A    between atoms: _199  and  _200
REMARK   86  A    between atoms: _205  and  _207
REMARK   87  A    between atoms: _207  and  _208
REMARK   88  A    between atoms: _211  and  _213
REMARK   89  A    between atoms: _213  and  _214
REMARK   90  A    between atoms: _213  and  _216
REMARK   91  A    between atoms: _216  and  _217
REMARK   92  A    between atoms: _222  and  _224
REMARK   93  A    between atoms: _224  and  _225
REMARK   94  A    between atoms: _224  and  _227
REMARK   95  A    between atoms: _227  and  _228
REMARK   96  A    between atoms: _231  and  _233
REMARK   97  A    between atoms: _233  and  _234
REMARK   98  A    between atoms: _233  and  _236
REMARK   99  A    between atoms: _236  and  _237
REMARK  100  A    between atoms: _240  and  _242
REMARK  101  A    between atoms: _242  and  _243
REMARK  102  A    between atoms: _245  and  _247
REMARK  103  A    between atoms: _247  and  _248
REMARK  104  A    between atoms: _247  and  _250
REMARK  105  A    between atoms: _250  and  _251
REMARK  106  A    between atoms: _251  and  _252
REMARK  107  A    between atoms: _252  and  _253
REMARK  108  A    between atoms: _262  and  _264
REMARK  109  A    between atoms: _264  and  _265
REMARK  110  A    between atoms: _264  and  _267
REMARK  111  A    between atoms: _267  and  _268
REMARK  112  A    between atoms: _273  and  _275
REMARK  113  A    between atoms: _275  and  _276
REMARK  114  A    between atoms: _275  and  _278
REMARK  115  A    between atoms: _278  and  _279
REMARK  116  A    between atoms: _279  and  _280
REMARK  117  A    between atoms: _280  and  _281
REMARK  118  A    between atoms: _290  and  _292
REMARK  119  A    between atoms: _292  and  _293
REMARK  120  A    between atoms: _292  and  _295
REMARK  121  A    between atoms: _295  and  _296
REMARK  122  A    between atoms: _302  and  _304
REMARK  123  A    between atoms: _304  and  _305
REMARK  124  A    between atoms: _304  and  _307
REMARK  125  A    between atoms: _307  and  _308
REMARK  126  A    between atoms: _311  and  _313
REMARK  127  A    between atoms: _313  and  _314
REMARK  128  A    between atoms: _313  and  _316
REMARK  129  A    between atoms: _316  and  _317
REMARK  130  A    between atoms: _320  and  _322
REMARK  131  A    between atoms: _322  and  _323
REMARK  132  A    between atoms: _322  and  _325
REMARK  133  A    between atoms: _325  and  _326
REMARK  134  A    between atoms: _329  and  _331
REMARK  135  A    between atoms: _331  and  _332
REMARK  136  A    between atoms: _331  and  _334
REMARK  137  A    between atoms: _334  and  _335
REMARK  138  A    between atoms: _338  and  _340
REMARK  139  A    between atoms: _340  and  _341
REMARK  140  A    between atoms: _343  and  _345
REMARK  141  A    between atoms: _345  and  _346
REMARK  142  A    between atoms: _349  and  _351
REMARK  143  A    between atoms: _351  and  _352
REMARK  144  A    between atoms: _351  and  _354
REMARK  145  A    between atoms: _354  and  _355
REMARK  146  A    between atoms: _358  and  _360
REMARK  147  A    between atoms: _360  and  _361
REMARK  148  A    between atoms: _360  and  _363
REMARK  149  A    between atoms: _363  and  _364
REMARK  150  A    between atoms: _367  and  _369
REMARK  151  A    between atoms: _369  and  _370
REMARK  152  A    between atoms: _369  and  _372
REMARK  153  A    between atoms: _372  and  _373
REMARK  154  A    between atoms: _376  and  _378
REMARK  155  A    between atoms: _378  and  _379
REMARK  156  A    between atoms: _378  and  _381
REMARK  157  A    between atoms: _381  and  _382
REMARK  158  A    between atoms: _385  and  _387
REMARK  159  A    between atoms: _387  and  _388
REMARK  160  A    between atoms: _387  and  _390
REMARK  161  A    between atoms: _390  and  _391
REMARK  162  A    between atoms: _391  and  _392
REMARK  163  A    between atoms: _395  and  _397
REMARK  164  A    between atoms: _397  and  _398
REMARK  165  A    between atoms: _397  and  _400
REMARK  166  A    between atoms: _400  and  _401
REMARK  167  A    between atoms: _401  and  _402
REMARK  168  A    between atoms: _402  and  _403
REMARK  169  A    between atoms: _403  and  _404
REMARK  170  A    between atoms: _408  and  _410
REMARK  171  A    between atoms: _410  and  _411
REMARK  172  A    between atoms: _410  and  _413
REMARK  173  A    between atoms: _416  and  _418
REMARK  174  A    between atoms: _418  and  _419
REMARK  175  A    between atoms: _418  and  _421
REMARK  176  A    between atoms: _424  and  _426
REMARK  177  A    between atoms: _426  and  _427
REMARK  178  A    between atoms: _429  and  _431
REMARK  179  A    between atoms: _431  and  _432
REMARK  180  A    between atoms: _434  and  _436
REMARK  181  A    between atoms: _436  and  _437
REMARK  182  A    between atoms: _436  and  _439
REMARK  183  A    between atoms: _439  and  _440
REMARK  184  A    between atoms: _443  and  _445
REMARK  185  A    between atoms: _445  and  _446
REMARK  186  A    between atoms: _448  and  _450
REMARK  187  A    between atoms: _450  and  _451
REMARK  188  A    between atoms: _453  and  _455
REMARK  189  A    between atoms: _455  and  _456
REMARK  190  A    between atoms: _455  and  _458
REMARK  191  A    between atoms: _458  and  _459
REMARK  192  A    between atoms: _459  and  _460
REMARK  193  A    between atoms: _462  and  _464
REMARK  194  A    between atoms: _464  and  _465
REMARK  195  A    between atoms: _464  and  _467
REMARK  196  A    between atoms: _470  and  _472
REMARK  197  A    between atoms: _472  and  _473
REMARK  198  A    between atoms: _472  and  _475
REMARK  199  A    between atoms: _475  and  _476
REMARK  200  A    between atoms: _480  and  _481
REMARK  201  A    between atoms: _486  and  _488
REMARK  202  A    between atoms: _488  and  _489
REMARK  203  A    between atoms: _488  and  _491
REMARK  204  A    between atoms: _491  and  _492
REMARK  205  A    between atoms: _496  and  _497
REMARK  206  A    between atoms: _502  and  _504
REMARK  207  A    between atoms: _504  and  _505
REMARK  208  A    between atoms: _508  and  _510
REMARK  209  A    between atoms: _510  and  _511
REMARK  210  A    between atoms: _510  and  _513
REMARK  211  A    between atoms: _513  and  _514
REMARK  212  A    between atoms: _519  and  _521
REMARK  213  A    between atoms: _521  and  _522
REMARK  214  A    between atoms: _521  and  _524
REMARK  215  A    between atoms: _524  and  _525
REMARK  216  A    between atoms: _528  and  _530
REMARK  217  A    between atoms: _530  and  _531
REMARK  218  A    between atoms: _530  and  _533
REMARK  219  A    between atoms: _533  and  _534
REMARK  220  A    between atoms: _537  and  _539
REMARK  221  A    between atoms: _539  and  _540
REMARK  222  A    between atoms: _542  and  _544
REMARK  223  A    between atoms: _544  and  _545
REMARK  224  A    between atoms: _544  and  _547
REMARK  225  A    between atoms: _547  and  _548
REMARK  226  A    between atoms: _548  and  _549
REMARK  227  A    between atoms: _549  and  _550
REMARK  228  A    between atoms: _559  and  _561
REMARK  229  A    between atoms: _561  and  _562
REMARK  230  A    between atoms: _561  and  _564
REMARK  231  A    between atoms: _564  and  _565
REMARK                            x       y       z     vdW  Elec       q    Type
REMARK                         _______ _______ _______ _____ _____    ______ ____
ROOT
ATOM      1  O   HOH     1     -25.553  52.552   1.667  0.00  0.00    +0.000 OA
ENDROOT
TORSDOF 0
REMARK  Name = ../refined-set-2016/4m8y/4m8y_pocket.pdb
REMARK  231 active torsions:
REMARK  status: ('A' for Active; 'I' for Inactive)
REMARK    1  A    between atoms: _1  and  _3
REMARK    2  A    between atoms: _3  and  _4
REMARK    3  A    between atoms: _3  and  _6
REMARK    4  A    between atoms: _6  and  _7
REMARK    5  A    between atoms: _7  and  _8
REMARK    6  A    between atoms: _8  and  _9
REMARK    7  A    between atoms: _18  and  _20
REMARK    8  A    between atoms: _20  and  _21
REMARK    9  A    between atoms: _20  and  _23
REMARK   10  A    between atoms: _23  and  _24
REMARK   11  A    between atoms: _27  and  _29
REMARK   12  A    between atoms: _29  and  _30
REMARK   13  A    between atoms: _29  and  _32
REMARK   14  A    between atoms: _32  and  _33
REMARK   15  A    between atoms: _36  and  _38
REMARK   16  A    between atoms: _38  and  _39
REMARK   17  A    between atoms: _38  and  _41
REMARK   18  A    between atoms: _41  and  _42
REMARK   19  A    between atoms: _45  and  _47
REMARK   20  A    between atoms: _47  and  _48
REMARK   21  A    between atoms: _47  and  _50
REMARK   22  A    between atoms: _50  and  _51
REMARK   23  A    between atoms: _54  and  _56
REMARK   24  A    between atoms: _56  and  _57
REMARK   25  A    between atoms: _59  and  _61
REMARK   26  A    between atoms: _61  and  _62
REMARK   27  A    between atoms: _65  and  _67
REMARK   28  A    between atoms: _67  and  _68
REMARK   29  A    between atoms: _67  and  _70
REMARK   30  A    between atoms: _70  and  _71
REMARK   31  A    between atoms: _74  and  _76
REMARK   32  A    between atoms: _76  and  _77
REMARK   33  A    between atoms: _76  and  _79
REMARK   34  A    between atoms: _79  and  _80
REMARK   35  A    between atoms: _83  and  _85
REMARK   36  A    between atoms: _85  and  _86
REMARK   37  A    between atoms: _85  and  _88
REMARK   38  A    between atoms: _88  and  _89
REMARK   39  A    between atoms: _92  and  _94
REMARK   40  A    between atoms: _94  and  _95
REMARK   41  A    between atoms: _94  and  _97
REMARK   42  A    between atoms: _97  and  _98
REMARK   43  A    between atoms: _101  and  _103
REMARK   44  A    between atoms: _103  and  _104
REMARK   45  A    between atoms: _103  and  _106
REMARK   46  A    between atoms: _106  and  _107
REMARK   47  A    between atoms: _107  and  _108
REMARK   48  A    between atoms: _108  and  _109
REMARK   49  A    between atoms: _109  and  _110
REMARK   50  A    between atoms: _114  and  _116
REMARK   51  A    between atoms: _116  and  _117
REMARK   52  A    between atoms: _116  and  _119
REMARK   53  A    between atoms: _122  and  _124
REMARK   54  A    between atoms: _124  and  _125
REMARK   55  A    between atoms: _124  and  _127
REMARK   56  A    between atoms: _130  and  _132
REMARK   57  A    between atoms: _132  and  _133
REMARK   58  A    between atoms: _135  and  _137
REMARK   59  A    between atoms: _137  and  _138
REMARK   60  A    between atoms: _140  and  _142
REMARK   61  A    between atoms: _142  and  _143
REMARK   62  A    between atoms: _142  and  _145
REMARK   63  A    between atoms: _145  and  _146
REMARK   64  A    between atoms: _149  and  _151
REMARK   65  A    between atoms: _151  and  _152
REMARK   66  A    between atoms: _154  and  _156
REMARK   67  A    between atoms: _156  and  _157
REMARK   68  A    between atoms: _159  and  _161
REMARK   69  A    between atoms: _161  and  _162
REMARK   70  A    between atoms: _161  and  _164
REMARK   71  A    between atoms: _164  and  _165
REMARK   72  A    between atoms: _171  and  _173
REMARK   73  A    between atoms: _173  and  _174
REMARK   74  A    between atoms: _173  and  _176
REMARK   75  A    between atoms: _176  and  _177
REMARK   76  A    between atoms: _177  and  _178
REMARK   77  A    between atoms: _180  and  _182
REMARK   78  A    between atoms: _182  and  _183
REMARK   79  A    between atoms: _182  and  _185
REMARK   80  A    between atoms: _185  and  _186
REMARK   81  A    between atoms: _189  and  _191
REMARK   82  A    between atoms: _191  and  _192
REMARK   83  A    between atoms: _191  and  _194
REMARK   84  A    between atoms: _194  and  _195
REMARK   85  A    between atoms: _199  and  _200
REMARK   86  A    between atoms: _205  and  _207
REMARK   87  A    between atoms: _207  and  _208
REMARK   88  A    between atoms: _211  and  _213
REMARK   89  A    between atoms: _213  and  _214
REMARK   90  A    between atoms: _213  and  _216
REMARK   91  A    between atoms: _216  and  _217
REMARK   92  A    between atoms: _222  and  _224
REMARK   93  A    between atoms: _224  and  _225
REMARK   94  A    between atoms: _224  and  _227
REMARK   95  A    between atoms: _227  and  _228
REMARK   96  A    between atoms: _231  and  _233
REMARK   97  A    between atoms: _233  and  _234
REMARK   98  A    between atoms: _233  and  _236
REMARK   99  A    between atoms: _236  and  _237
REMARK  100  A    between atoms: _240  and  _242
REMARK  101  A    between atoms: _242  and  _243
REMARK  102  A    between atoms: _245  and  _247
REMARK  103  A    between atoms: _247  and  _248
REMARK  104  A    between atoms: _247  and  _250
REMARK  105  A    between atoms: _250  and  _251
REMARK  106  A    between atoms: _251  and  _252
REMARK  107  A    between atoms: _252  and  _253
REMARK  108  A    between atoms: _262  and  _264
REMARK  109  A    between atoms: _264  and  _265
REMARK  110  A    between atoms: _264  and  _267
REMARK  111  A    between atoms: _267  and  _268
REMARK  112  A    between atoms: _273  and  _275
REMARK  113  A    between atoms: _275  and  _276
REMARK  114  A    between atoms: _275  and  _278
REMARK  115  A    between atoms: _278  and  _279
REMARK  116  A    between atoms: _279  and  _280
REMARK  117  A    between atoms: _280  and  _281
REMARK  118  A    between atoms: _290  and  _292
REMARK  119  A    between atoms: _292  and  _293
REMARK  120  A    between atoms: _292  and  _295
REMARK  121  A    between atoms: _295  and  _296
REMARK  122  A    between atoms: _302  and  _304
REMARK  123  A    between atoms: _304  and  _305
REMARK  124  A    between atoms: _304  and  _307
REMARK  125  A    between atoms: _307  and  _308
REMARK  126  A    between atoms: _311  and  _313
REMARK  127  A    between atoms: _313  and  _314
REMARK  128  A    between atoms: _313  and  _316
REMARK  129  A    between atoms: _316  and  _317
REMARK  130  A    between atoms: _320  and  _322
REMARK  131  A    between atoms: _322  and  _323
REMARK  132  A    between atoms: _322  and  _325
REMARK  133  A    between atoms: _325  and  _326
REMARK  134  A    between atoms: _329  and  _331
REMARK  135  A    between atoms: _331  and  _332
REMARK  136  A    between atoms: _331  and  _334
REMARK  137  A    between atoms: _334  and  _335
REMARK  138  A    between atoms: _338  and  _340
REMARK  139  A    between atoms: _340  and  _341
REMARK  140  A    between atoms: _343  and  _345
REMARK  141  A    between atoms: _345  and  _346
REMARK  142  A    between atoms: _349  and  _351
REMARK  143  A    between atoms: _351  and  _352
REMARK  144  A    between atoms: _351  and  _354
REMARK  145  A    between atoms: _354  and  _355
REMARK  146  A    between atoms: _358  and  _360
REMARK  147  A    between atoms: _360  and  _361
REMARK  148  A    between atoms: _360  and  _363
REMARK  149  A    between atoms: _363  and  _364
REMARK  150  A    between atoms: _367  and  _369
REMARK  151  A    between atoms: _369  and  _370
REMARK  152  A    between atoms: _369  and  _372
REMARK  153  A    between atoms: _372  and  _373
REMARK  154  A    between atoms: _376  and  _378
REMARK  155  A    between atoms: _378  and  _379
REMARK  156  A    between atoms: _378  and  _381
REMARK  157  A    between atoms: _381  and  _382
REMARK  158  A    between atoms: _385  and  _387
REMARK  159  A    between atoms: _387  and  _388
REMARK  160  A    between atoms: _387  and  _390
REMARK  161  A    between atoms: _390  and  _391
REMARK  162  A    between atoms: _391  and  _392
REMARK  163  A    between atoms: _395  and  _397
REMARK  164  A    between atoms: _397  and  _398
REMARK  165  A    between atoms: _397  and  _400
REMARK  166  A    between atoms: _400  and  _401
REMARK  167  A    between atoms: _401  and  _402
REMARK  168  A    between atoms: _402  and  _403
REMARK  169  A    between atoms: _403  and  _404
REMARK  170  A    between atoms: _408  and  _410
REMARK  171  A    between atoms: _410  and  _411
REMARK  172  A    between atoms: _410  and  _413
REMARK  173  A    between atoms: _416  and  _418
REMARK  174  A    between atoms: _418  and  _419
REMARK  175  A    between atoms: _418  and  _421
REMARK  176  A    between atoms: _424  and  _426
REMARK  177  A    between atoms: _426  and  _427
REMARK  178  A    between atoms: _429  and  _431
REMARK  179  A    between atoms: _431  and  _432
REMARK  180  A    between atoms: _434  and  _436
REMARK  181  A    between atoms: _436  and  _437
REMARK  182  A    between atoms: _436  and  _439
REMARK  183  A    between atoms: _439  and  _440
REMARK  184  A    between atoms: _443  and  _445
REMARK  185  A    between atoms: _445  and  _446
REMARK  186  A    between atoms: _448  and  _450
REMARK  187  A    between atoms: _450  and  _451
REMARK  188  A    between atoms: _453  and  _455
REMARK  189  A    between atoms: _455  and  _456
REMARK  190  A    between atoms: _455  and  _458
REMARK  191  A    between atoms: _458  and  _459
REMARK  192  A    between atoms: _459  and  _460
REMARK  193  A    between atoms: _462  and  _464
REMARK  194  A    between atoms: _464  and  _465
REMARK  195  A    between atoms: _464  and  _467
REMARK  196  A    between atoms: _470  and  _472
REMARK  197  A    between atoms: _472  and  _473
REMARK  198  A    between atoms: _472  and  _475
REMARK  199  A    between atoms: _475  and  _476
REMARK  200  A    between atoms: _480  and  _481
REMARK  201  A    between atoms: _486  and  _488
REMARK  202  A    between atoms: _488  and  _489
REMARK  203  A    between atoms: _488  and  _491
REMARK  204  A    between atoms: _491  and  _492
REMARK  205  A    between atoms: _496  and  _497
REMARK  206  A    between atoms: _502  and  _504
REMARK  207  A    between atoms: _504  and  _505
REMARK  208  A    between atoms: _508  and  _510
REMARK  209  A    between atoms: _510  and  _511
REMARK  210  A    between atoms: _510  and  _513
REMARK  211  A    between atoms: _513  and  _514
REMARK  212  A    between atoms: _519  and  _521
REMARK  213  A    between atoms: _521  and  _522
REMARK  214  A    between atoms: _521  and  _524
REMARK  215  A    between atoms: _524  and  _525
REMARK  216  A    between atoms: _528  and  _530
REMARK  217  A    between atoms: _530  and  _531
REMARK  218  A    between atoms: _530  and  _533
REMARK  219  A    between atoms: _533  and  _534
REMARK  220  A    between atoms: _537  and  _539
REMARK  221  A    between atoms: _539  and  _540
REMARK  222  A    between atoms: _542  and  _544
REMARK  223  A    between atoms: _544  and  _545
REMARK  224  A    between atoms: _544  and  _547
REMARK  225  A    between atoms: _547  and  _548
REMARK  226  A    between atoms: _548  and  _549
REMARK  227  A    between atoms: _549  and  _550
REMARK  228  A    between atoms: _559  and  _561
REMARK  229  A    between atoms: _561  and  _562
REMARK  230  A    between atoms: _561  and  _564
REMARK  231  A    between atoms: _564  and  _565
REMARK                            x       y       z     vdW  Elec       q    Type
REMARK                         _______ _______ _______ _____ _____    ______ ____
ROOT
ATOM      1  O   HOH     1      -6.314  48.520  -0.484  0.00  0.00    +0.000 OA
ENDROOT
TORSDOF 0
REMARK  Name = ../refined-set-2016/4m8y/4m8y_pocket.pdb
REMARK  231 active torsions:
REMARK  status: ('A' for Active; 'I' for Inactive)
REMARK    1  A    between atoms: _1  and  _3
REMARK    2  A    between atoms: _3  and  _4
REMARK    3  A    between atoms: _3  and  _6
REMARK    4  A    between atoms: _6  and  _7
REMARK    5  A    between atoms: _7  and  _8
REMARK    6  A    between atoms: _8  and  _9
REMARK    7  A    between atoms: _18  and  _20
REMARK    8  A    between atoms: _20  and  _21
REMARK    9  A    between atoms: _20  and  _23
REMARK   10  A    between atoms: _23  and  _24
REMARK   11  A    between atoms: _27  and  _29
REMARK   12  A    between atoms: _29  and  _30
REMARK   13  A    between atoms: _29  and  _32
REMARK   14  A    between atoms: _32  and  _33
REMARK   15  A    between atoms: _36  and  _38
REMARK   16  A    between atoms: _38  and  _39
REMARK   17  A    between atoms: _38  and  _41
REMARK   18  A    between atoms: _41  and  _42
REMARK   19  A    between atoms: _45  and  _47
REMARK   20  A    between atoms: _47  and  _48
REMARK   21  A    between atoms: _47  and  _50
REMARK   22  A    between atoms: _50  and  _51
REMARK   23  A    between atoms: _54  and  _56
REMARK   24  A    between atoms: _56  and  _57
REMARK   25  A    between atoms: _59  and  _61
REMARK   26  A    between atoms: _61  and  _62
REMARK   27  A    between atoms: _65  and  _67
REMARK   28  A    between atoms: _67  and  _68
REMARK   29  A    between atoms: _67  and  _70
REMARK   30  A    between atoms: _70  and  _71
REMARK   31  A    between atoms: _74  and  _76
REMARK   32  A    between atoms: _76  and  _77
REMARK   33  A    between atoms: _76  and  _79
REMARK   34  A    between atoms: _79  and  _80
REMARK   35  A    between atoms: _83  and  _85
REMARK   36  A    between atoms: _85  and  _86
REMARK   37  A    between atoms: _85  and  _88
REMARK   38  A    between atoms: _88  and  _89
REMARK   39  A    between atoms: _92  and  _94
REMARK   40  A    between atoms: _94  and  _95
REMARK   41  A    between atoms: _94  and  _97
REMARK   42  A    between atoms: _97  and  _98
REMARK   43  A    between atoms: _101  and  _103
REMARK   44  A    between atoms: _103  and  _104
REMARK   45  A    between atoms: _103  and  _106
REMARK   46  A    between atoms: _106  and  _107
REMARK   47  A    between atoms: _107  and  _108
REMARK   48  A    between atoms: _108  and  _109
REMARK   49  A    between atoms: _109  and  _110
REMARK   50  A    between atoms: _114  and  _116
REMARK   51  A    between atoms: _116  and  _117
REMARK   52  A    between atoms: _116  and  _119
REMARK   53  A    between atoms: _122  and  _124
REMARK   54  A    between atoms: _124  and  _125
REMARK   55  A    between atoms: _124  and  _127
REMARK   56  A    between atoms: _130  and  _132
REMARK   57  A    between atoms: _132  and  _133
REMARK   58  A    between atoms: _135  and  _137
REMARK   59  A    between atoms: _137  and  _138
REMARK   60  A    between atoms: _140  and  _142
REMARK   61  A    between atoms: _142  and  _143
REMARK   62  A    between atoms: _142  and  _145
REMARK   63  A    between atoms: _145  and  _146
REMARK   64  A    between atoms: _149  and  _151
REMARK   65  A    between atoms: _151  and  _152
REMARK   66  A    between atoms: _154  and  _156
REMARK   67  A    between atoms: _156  and  _157
REMARK   68  A    between atoms: _159  and  _161
REMARK   69  A    between atoms: _161  and  _162
REMARK   70  A    between atoms: _161  and  _164
REMARK   71  A    between atoms: _164  and  _165
REMARK   72  A    between atoms: _171  and  _173
REMARK   73  A    between atoms: _173  and  _174
REMARK   74  A    between atoms: _173  and  _176
REMARK   75  A    between atoms: _176  and  _177
REMARK   76  A    between atoms: _177  and  _178
REMARK   77  A    between atoms: _180  and  _182
REMARK   78  A    between atoms: _182  and  _183
REMARK   79  A    between atoms: _182  and  _185
REMARK   80  A    between atoms: _185  and  _186
REMARK   81  A    between atoms: _189  and  _191
REMARK   82  A    between atoms: _191  and  _192
REMARK   83  A    between atoms: _191  and  _194
REMARK   84  A    between atoms: _194  and  _195
REMARK   85  A    between atoms: _199  and  _200
REMARK   86  A    between atoms: _205  and  _207
REMARK   87  A    between atoms: _207  and  _208
REMARK   88  A    between atoms: _211  and  _213
REMARK   89  A    between atoms: _213  and  _214
REMARK   90  A    between atoms: _213  and  _216
REMARK   91  A    between atoms: _216  and  _217
REMARK   92  A    between atoms: _222  and  _224
REMARK   93  A    between atoms: _224  and  _225
REMARK   94  A    between atoms: _224  and  _227
REMARK   95  A    between atoms: _227  and  _228
REMARK   96  A    between atoms: _231  and  _233
REMARK   97  A    between atoms: _233  and  _234
REMARK   98  A    between atoms: _233  and  _236
REMARK   99  A    between atoms: _236  and  _237
REMARK  100  A    between atoms: _240  and  _242
REMARK  101  A    between atoms: _242  and  _243
REMARK  102  A    between atoms: _245  and  _247
REMARK  103  A    between atoms: _247  and  _248
REMARK  104  A    between atoms: _247  and  _250
REMARK  105  A    between atoms: _250  and  _251
REMARK  106  A    between atoms: _251  and  _252
REMARK  107  A    between atoms: _252  and  _253
REMARK  108  A    between atoms: _262  and  _264
REMARK  109  A    between atoms: _264  and  _265
REMARK  110  A    between atoms: _264  and  _267
REMARK  111  A    between atoms: _267  and  _268
REMARK  112  A    between atoms: _273  and  _275
REMARK  113  A    between atoms: _275  and  _276
REMARK  114  A    between atoms: _275  and  _278
REMARK  115  A    between atoms: _278  and  _279
REMARK  116  A    between atoms: _279  and  _280
REMARK  117  A    between atoms: _280  and  _281
REMARK  118  A    between atoms: _290  and  _292
REMARK  119  A    between atoms: _292  and  _293
REMARK  120  A    between atoms: _292  and  _295
REMARK  121  A    between atoms: _295  and  _296
REMARK  122  A    between atoms: _302  and  _304
REMARK  123  A    between atoms: _304  and  _305
REMARK  124  A    between atoms: _304  and  _307
REMARK  125  A    between atoms: _307  and  _308
REMARK  126  A    between atoms: _311  and  _313
REMARK  127  A    between atoms: _313  and  _314
REMARK  128  A    between atoms: _313  and  _316
REMARK  129  A    between atoms: _316  and  _317
REMARK  130  A    between atoms: _320  and  _322
REMARK  131  A    between atoms: _322  and  _323
REMARK  132  A    between atoms: _322  and  _325
REMARK  133  A    between atoms: _325  and  _326
REMARK  134  A    between atoms: _329  and  _331
REMARK  135  A    between atoms: _331  and  _332
REMARK  136  A    between atoms: _331  and  _334
REMARK  137  A    between atoms: _334  and  _335
REMARK  138  A    between atoms: _338  and  _340
REMARK  139  A    between atoms: _340  and  _341
REMARK  140  A    between atoms: _343  and  _345
REMARK  141  A    between atoms: _345  and  _346
REMARK  142  A    between atoms: _349  and  _351
REMARK  143  A    between atoms: _351  and  _352
REMARK  144  A    between atoms: _351  and  _354
REMARK  145  A    between atoms: _354  and  _355
REMARK  146  A    between atoms: _358  and  _360
REMARK  147  A    between atoms: _360  and  _361
REMARK  148  A    between atoms: _360  and  _363
REMARK  149  A    between atoms: _363  and  _364
REMARK  150  A    between atoms: _367  and  _369
REMARK  151  A    between atoms: _369  and  _370
REMARK  152  A    between atoms: _369  and  _372
REMARK  153  A    between atoms: _372  and  _373
REMARK  154  A    between atoms: _376  and  _378
REMARK  155  A    between atoms: _378  and  _379
REMARK  156  A    between atoms: _378  and  _381
REMARK  157  A    between atoms: _381  and  _382
REMARK  158  A    between atoms: _385  and  _387
REMARK  159  A    between atoms: _387  and  _388
REMARK  160  A    between atoms: _387  and  _390
REMARK  161  A    between atoms: _390  and  _391
REMARK  162  A    between atoms: _391  and  _392
REMARK  163  A    between atoms: _395  and  _397
REMARK  164  A    between atoms: _397  and  _398
REMARK  165  A    between atoms: _397  and  _400
REMARK  166  A    between atoms: _400  and  _401
REMARK  167  A    between atoms: _401  and  _402
REMARK  168  A    between atoms: _402  and  _403
REMARK  169  A    between atoms: _403  and  _404
REMARK  170  A    between atoms: _408  and  _410
REMARK  171  A    between atoms: _410  and  _411
REMARK  172  A    between atoms: _410  and  _413
REMARK  173  A    between atoms: _416  and  _418
REMARK  174  A    between atoms: _418  and  _419
REMARK  175  A    between atoms: _418  and  _421
REMARK  176  A    between atoms: _424  and  _426
REMARK  177  A    between atoms: _426  and  _427
REMARK  178  A    between atoms: _429  and  _431
REMARK  179  A    between atoms: _431  and  _432
REMARK  180  A    between atoms: _434  and  _436
REMARK  181  A    between atoms: _436  and  _437
REMARK  182  A    between atoms: _436  and  _439
REMARK  183  A    between atoms: _439  and  _440
REMARK  184  A    between atoms: _443  and  _445
REMARK  185  A    between atoms: _445  and  _446
REMARK  186  A    between atoms: _448  and  _450
REMARK  187  A    between atoms: _450  and  _451
REMARK  188  A    between atoms: _453  and  _455
REMARK  189  A    between atoms: _455  and  _456
REMARK  190  A    between atoms: _455  and  _458
REMARK  191  A    between atoms: _458  and  _459
REMARK  192  A    between atoms: _459  and  _460
REMARK  193  A    between atoms: _462  and  _464
REMARK  194  A    between atoms: _464  and  _465
REMARK  195  A    between atoms: _464  and  _467
REMARK  196  A    between atoms: _470  and  _472
REMARK  197  A    between atoms: _472  and  _473
REMARK  198  A    between atoms: _472  and  _475
REMARK  199  A    between atoms: _475  and  _476
REMARK  200  A    between atoms: _480  and  _481
REMARK  201  A    between atoms: _486  and  _488
REMARK  202  A    between atoms: _488  and  _489
REMARK  203  A    between atoms: _488  and  _491
REMARK  204  A    between atoms: _491  and  _492
REMARK  205  A    between atoms: _496  and  _497
REMARK  206  A    between atoms: _502  and  _504
REMARK  207  A    between atoms: _504  and  _505
REMARK  208  A    between atoms: _508  and  _510
REMARK  209  A    between atoms: _510  and  _511
REMARK  210  A    between atoms: _510  and  _513
REMARK  211  A    between atoms: _513  and  _514
REMARK  212  A    between atoms: _519  and  _521
REMARK  213  A    between atoms: _521  and  _522
REMARK  214  A    between atoms: _521  and  _524
REMARK  215  A    between atoms: _524  and  _525
REMARK  216  A    between atoms: _528  and  _530
REMARK  217  A    between atoms: _530  and  _531
REMARK  218  A    between atoms: _530  and  _533
REMARK  219  A    between atoms: _533  and  _534
REMARK  220  A    between atoms: _537  and  _539
REMARK  221  A    between atoms: _539  and  _540
REMARK  222  A    between atoms: _542  and  _544
REMARK  223  A    between atoms: _544  and  _545
REMARK  224  A    between atoms: _544  and  _547
REMARK  225  A    between atoms: _547  and  _548
REMARK  226  A    between atoms: _548  and  _549
REMARK  227  A    between atoms: _549  and  _550
REMARK  228  A    between atoms: _559  and  _561
REMARK  229  A    between atoms: _561  and  _562
REMARK  230  A    between atoms: _561  and  _564
REMARK  231  A    between atoms: _564  and  _565
REMARK                            x       y       z     vdW  Elec       q    Type
REMARK                         _______ _______ _______ _____ _____    ______ ____
ROOT
ATOM      1  O   HOH     1     -20.979  47.755   3.269  0.00  0.00    +0.000 OA
ENDROOT
TORSDOF 0
REMARK  Name = ../refined-set-2016/4m8y/4m8y_pocket.pdb
REMARK  231 active torsions:
REMARK  status: ('A' for Active; 'I' for Inactive)
REMARK    1  A    between atoms: _1  and  _3
REMARK    2  A    between atoms: _3  and  _4
REMARK    3  A    between atoms: _3  and  _6
REMARK    4  A    between atoms: _6  and  _7
REMARK    5  A    between atoms: _7  and  _8
REMARK    6  A    between atoms: _8  and  _9
REMARK    7  A    between atoms: _18  and  _20
REMARK    8  A    between atoms: _20  and  _21
REMARK    9  A    between atoms: _20  and  _23
REMARK   10  A    between atoms: _23  and  _24
REMARK   11  A    between atoms: _27  and  _29
REMARK   12  A    between atoms: _29  and  _30
REMARK   13  A    between atoms: _29  and  _32
REMARK   14  A    between atoms: _32  and  _33
REMARK   15  A    between atoms: _36  and  _38
REMARK   16  A    between atoms: _38  and  _39
REMARK   17  A    between atoms: _38  and  _41
REMARK   18  A    between atoms: _41  and  _42
REMARK   19  A    between atoms: _45  and  _47
REMARK   20  A    between atoms: _47  and  _48
REMARK   21  A    between atoms: _47  and  _50
REMARK   22  A    between atoms: _50  and  _51
REMARK   23  A    between atoms: _54  and  _56
REMARK   24  A    between atoms: _56  and  _57
REMARK   25  A    between atoms: _59  and  _61
REMARK   26  A    between atoms: _61  and  _62
REMARK   27  A    between atoms: _65  and  _67
REMARK   28  A    between atoms: _67  and  _68
REMARK   29  A    between atoms: _67  and  _70
REMARK   30  A    between atoms: _70  and  _71
REMARK   31  A    between atoms: _74  and  _76
REMARK   32  A    between atoms: _76  and  _77
REMARK   33  A    between atoms: _76  and  _79
REMARK   34  A    between atoms: _79  and  _80
REMARK   35  A    between atoms: _83  and  _85
REMARK   36  A    between atoms: _85  and  _86
REMARK   37  A    between atoms: _85  and  _88
REMARK   38  A    between atoms: _88  and  _89
REMARK   39  A    between atoms: _92  and  _94
REMARK   40  A    between atoms: _94  and  _95
REMARK   41  A    between atoms: _94  and  _97
REMARK   42  A    between atoms: _97  and  _98
REMARK   43  A    between atoms: _101  and  _103
REMARK   44  A    between atoms: _103  and  _104
REMARK   45  A    between atoms: _103  and  _106
REMARK   46  A    between atoms: _106  and  _107
REMARK   47  A    between atoms: _107  and  _108
REMARK   48  A    between atoms: _108  and  _109
REMARK   49  A    between atoms: _109  and  _110
REMARK   50  A    between atoms: _114  and  _116
REMARK   51  A    between atoms: _116  and  _117
REMARK   52  A    between atoms: _116  and  _119
REMARK   53  A    between atoms: _122  and  _124
REMARK   54  A    between atoms: _124  and  _125
REMARK   55  A    between atoms: _124  and  _127
REMARK   56  A    between atoms: _130  and  _132
REMARK   57  A    between atoms: _132  and  _133
REMARK   58  A    between atoms: _135  and  _137
REMARK   59  A    between atoms: _137  and  _138
REMARK   60  A    between atoms: _140  and  _142
REMARK   61  A    between atoms: _142  and  _143
REMARK   62  A    between atoms: _142  and  _145
REMARK   63  A    between atoms: _145  and  _146
REMARK   64  A    between atoms: _149  and  _151
REMARK   65  A    between atoms: _151  and  _152
REMARK   66  A    between atoms: _154  and  _156
REMARK   67  A    between atoms: _156  and  _157
REMARK   68  A    between atoms: _159  and  _161
REMARK   69  A    between atoms: _161  and  _162
REMARK   70  A    between atoms: _161  and  _164
REMARK   71  A    between atoms: _164  and  _165
REMARK   72  A    between atoms: _171  and  _173
REMARK   73  A    between atoms: _173  and  _174
REMARK   74  A    between atoms: _173  and  _176
REMARK   75  A    between atoms: _176  and  _177
REMARK   76  A    between atoms: _177  and  _178
REMARK   77  A    between atoms: _180  and  _182
REMARK   78  A    between atoms: _182  and  _183
REMARK   79  A    between atoms: _182  and  _185
REMARK   80  A    between atoms: _185  and  _186
REMARK   81  A    between atoms: _189  and  _191
REMARK   82  A    between atoms: _191  and  _192
REMARK   83  A    between atoms: _191  and  _194
REMARK   84  A    between atoms: _194  and  _195
REMARK   85  A    between atoms: _199  and  _200
REMARK   86  A    between atoms: _205  and  _207
REMARK   87  A    between atoms: _207  and  _208
REMARK   88  A    between atoms: _211  and  _213
REMARK   89  A    between atoms: _213  and  _214
REMARK   90  A    between atoms: _213  and  _216
REMARK   91  A    between atoms: _216  and  _217
REMARK   92  A    between atoms: _222  and  _224
REMARK   93  A    between atoms: _224  and  _225
REMARK   94  A    between atoms: _224  and  _227
REMARK   95  A    between atoms: _227  and  _228
REMARK   96  A    between atoms: _231  and  _233
REMARK   97  A    between atoms: _233  and  _234
REMARK   98  A    between atoms: _233  and  _236
REMARK   99  A    between atoms: _236  and  _237
REMARK  100  A    between atoms: _240  and  _242
REMARK  101  A    between atoms: _242  and  _243
REMARK  102  A    between atoms: _245  and  _247
REMARK  103  A    between atoms: _247  and  _248
REMARK  104  A    between atoms: _247  and  _250
REMARK  105  A    between atoms: _250  and  _251
REMARK  106  A    between atoms: _251  and  _252
REMARK  107  A    between atoms: _252  and  _253
REMARK  108  A    between atoms: _262  and  _264
REMARK  109  A    between atoms: _264  and  _265
REMARK  110  A    between atoms: _264  and  _267
REMARK  111  A    between atoms: _267  and  _268
REMARK  112  A    between atoms: _273  and  _275
REMARK  113  A    between atoms: _275  and  _276
REMARK  114  A    between atoms: _275  and  _278
REMARK  115  A    between atoms: _278  and  _279
REMARK  116  A    between atoms: _279  and  _280
REMARK  117  A    between atoms: _280  and  _281
REMARK  118  A    between atoms: _290  and  _292
REMARK  119  A    between atoms: _292  and  _293
REMARK  120  A    between atoms: _292  and  _295
REMARK  121  A    between atoms: _295  and  _296
REMARK  122  A    between atoms: _302  and  _304
REMARK  123  A    between atoms: _304  and  _305
REMARK  124  A    between atoms: _304  and  _307
REMARK  125  A    between atoms: _307  and  _308
REMARK  126  A    between atoms: _311  and  _313
REMARK  127  A    between atoms: _313  and  _314
REMARK  128  A    between atoms: _313  and  _316
REMARK  129  A    between atoms: _316  and  _317
REMARK  130  A    between atoms: _320  and  _322
REMARK  131  A    between atoms: _322  and  _323
REMARK  132  A    between atoms: _322  and  _325
REMARK  133  A    between atoms: _325  and  _326
REMARK  134  A    between atoms: _329  and  _331
REMARK  135  A    between atoms: _331  and  _332
REMARK  136  A    between atoms: _331  and  _334
REMARK  137  A    between atoms: _334  and  _335
REMARK  138  A    between atoms: _338  and  _340
REMARK  139  A    between atoms: _340  and  _341
REMARK  140  A    between atoms: _343  and  _345
REMARK  141  A    between atoms: _345  and  _346
REMARK  142  A    between atoms: _349  and  _351
REMARK  143  A    between atoms: _351  and  _352
REMARK  144  A    between atoms: _351  and  _354
REMARK  145  A    between atoms: _354  and  _355
REMARK  146  A    between atoms: _358  and  _360
REMARK  147  A    between atoms: _360  and  _361
REMARK  148  A    between atoms: _360  and  _363
REMARK  149  A    between atoms: _363  and  _364
REMARK  150  A    between atoms: _367  and  _369
REMARK  151  A    between atoms: _369  and  _370
REMARK  152  A    between atoms: _369  and  _372
REMARK  153  A    between atoms: _372  and  _373
REMARK  154  A    between atoms: _376  and  _378
REMARK  155  A    between atoms: _378  and  _379
REMARK  156  A    between atoms: _378  and  _381
REMARK  157  A    between atoms: _381  and  _382
REMARK  158  A    between atoms: _385  and  _387
REMARK  159  A    between atoms: _387  and  _388
REMARK  160  A    between atoms: _387  and  _390
REMARK  161  A    between atoms: _390  and  _391
REMARK  162  A    between atoms: _391  and  _392
REMARK  163  A    between atoms: _395  and  _397
REMARK  164  A    between atoms: _397  and  _398
REMARK  165  A    between atoms: _397  and  _400
REMARK  166  A    between atoms: _400  and  _401
REMARK  167  A    between atoms: _401  and  _402
REMARK  168  A    between atoms: _402  and  _403
REMARK  169  A    between atoms: _403  and  _404
REMARK  170  A    between atoms: _408  and  _410
REMARK  171  A    between atoms: _410  and  _411
REMARK  172  A    between atoms: _410  and  _413
REMARK  173  A    between atoms: _416  and  _418
REMARK  174  A    between atoms: _418  and  _419
REMARK  175  A    between atoms: _418  and  _421
REMARK  176  A    between atoms: _424  and  _426
REMARK  177  A    between atoms: _426  and  _427
REMARK  178  A    between atoms: _429  and  _431
REMARK  179  A    between atoms: _431  and  _432
REMARK  180  A    between atoms: _434  and  _436
REMARK  181  A    between atoms: _436  and  _437
REMARK  182  A    between atoms: _436  and  _439
REMARK  183  A    between atoms: _439  and  _440
REMARK  184  A    between atoms: _443  and  _445
REMARK  185  A    between atoms: _445  and  _446
REMARK  186  A    between atoms: _448  and  _450
REMARK  187  A    between atoms: _450  and  _451
REMARK  188  A    between atoms: _453  and  _455
REMARK  189  A    between atoms: _455  and  _456
REMARK  190  A    between atoms: _455  and  _458
REMARK  191  A    between atoms: _458  and  _459
REMARK  192  A    between atoms: _459  and  _460
REMARK  193  A    between atoms: _462  and  _464
REMARK  194  A    between atoms: _464  and  _465
REMARK  195  A    between atoms: _464  and  _467
REMARK  196  A    between atoms: _470  and  _472
REMARK  197  A    between atoms: _472  and  _473
REMARK  198  A    between atoms: _472  and  _475
REMARK  199  A    between atoms: _475  and  _476
REMARK  200  A    between atoms: _480  and  _481
REMARK  201  A    between atoms: _486  and  _488
REMARK  202  A    between atoms: _488  and  _489
REMARK  203  A    between atoms: _488  and  _491
REMARK  204  A    between atoms: _491  and  _492
REMARK  205  A    between atoms: _496  and  _497
REMARK  206  A    between atoms: _502  and  _504
REMARK  207  A    between atoms: _504  and  _505
REMARK  208  A    between atoms: _508  and  _510
REMARK  209  A    between atoms: _510  and  _511
REMARK  210  A    between atoms: _510  and  _513
REMARK  211  A    between atoms: _513  and  _514
REMARK  212  A    between atoms: _519  and  _521
REMARK  213  A    between atoms: _521  and  _522
REMARK  214  A    between atoms: _521  and  _524
REMARK  215  A    between atoms: _524  and  _525
REMARK  216  A    between atoms: _528  and  _530
REMARK  217  A    between atoms: _530  and  _531
REMARK  218  A    between atoms: _530  and  _533
REMARK  219  A    between atoms: _533  and  _534
REMARK  220  A    between atoms: _537  and  _539
REMARK  221  A    between atoms: _539  and  _540
REMARK  222  A    between atoms: _542  and  _544
REMARK  223  A    between atoms: _544  and  _545
REMARK  224  A    between atoms: _544  and  _547
REMARK  225  A    between atoms: _547  and  _548
REMARK  226  A    between atoms: _548  and  _549
REMARK  227  A    between atoms: _549  and  _550
REMARK  228  A    between atoms: _559  and  _561
REMARK  229  A    between atoms: _561  and  _562
REMARK  230  A    between atoms: _561  and  _564
REMARK  231  A    between atoms: _564  and  _565
REMARK                            x       y       z     vdW  Elec       q    Type
REMARK                         _______ _______ _______ _____ _____    ______ ____
ROOT
ATOM      1  O   HOH     1     -10.881  47.311  -7.235  0.00  0.00    +0.000 OA
ENDROOT
TORSDOF 0
REMARK  Name = ../refined-set-2016/4m8y/4m8y_pocket.pdb
REMARK  231 active torsions:
REMARK  status: ('A' for Active; 'I' for Inactive)
REMARK    1  A    between atoms: _1  and  _3
REMARK    2  A    between atoms: _3  and  _4
REMARK    3  A    between atoms: _3  and  _6
REMARK    4  A    between atoms: _6  and  _7
REMARK    5  A    between atoms: _7  and  _8
REMARK    6  A    between atoms: _8  and  _9
REMARK    7  A    between atoms: _18  and  _20
REMARK    8  A    between atoms: _20  and  _21
REMARK    9  A    between atoms: _20  and  _23
REMARK   10  A    between atoms: _23  and  _24
REMARK   11  A    between atoms: _27  and  _29
REMARK   12  A    between atoms: _29  and  _30
REMARK   13  A    between atoms: _29  and  _32
REMARK   14  A    between atoms: _32  and  _33
REMARK   15  A    between atoms: _36  and  _38
REMARK   16  A    between atoms: _38  and  _39
REMARK   17  A    between atoms: _38  and  _41
REMARK   18  A    between atoms: _41  and  _42
REMARK   19  A    between atoms: _45  and  _47
REMARK   20  A    between atoms: _47  and  _48
REMARK   21  A    between atoms: _47  and  _50
REMARK   22  A    between atoms: _50  and  _51
REMARK   23  A    between atoms: _54  and  _56
REMARK   24  A    between atoms: _56  and  _57
REMARK   25  A    between atoms: _59  and  _61
REMARK   26  A    between atoms: _61  and  _62
REMARK   27  A    between atoms: _65  and  _67
REMARK   28  A    between atoms: _67  and  _68
REMARK   29  A    between atoms: _67  and  _70
REMARK   30  A    between atoms: _70  and  _71
REMARK   31  A    between atoms: _74  and  _76
REMARK   32  A    between atoms: _76  and  _77
REMARK   33  A    between atoms: _76  and  _79
REMARK   34  A    between atoms: _79  and  _80
REMARK   35  A    between atoms: _83  and  _85
REMARK   36  A    between atoms: _85  and  _86
REMARK   37  A    between atoms: _85  and  _88
REMARK   38  A    between atoms: _88  and  _89
REMARK   39  A    between atoms: _92  and  _94
REMARK   40  A    between atoms: _94  and  _95
REMARK   41  A    between atoms: _94  and  _97
REMARK   42  A    between atoms: _97  and  _98
REMARK   43  A    between atoms: _101  and  _103
REMARK   44  A    between atoms: _103  and  _104
REMARK   45  A    between atoms: _103  and  _106
REMARK   46  A    between atoms: _106  and  _107
REMARK   47  A    between atoms: _107  and  _108
REMARK   48  A    between atoms: _108  and  _109
REMARK   49  A    between atoms: _109  and  _110
REMARK   50  A    between atoms: _114  and  _116
REMARK   51  A    between atoms: _116  and  _117
REMARK   52  A    between atoms: _116  and  _119
REMARK   53  A    between atoms: _122  and  _124
REMARK   54  A    between atoms: _124  and  _125
REMARK   55  A    between atoms: _124  and  _127
REMARK   56  A    between atoms: _130  and  _132
REMARK   57  A    between atoms: _132  and  _133
REMARK   58  A    between atoms: _135  and  _137
REMARK   59  A    between atoms: _137  and  _138
REMARK   60  A    between atoms: _140  and  _142
REMARK   61  A    between atoms: _142  and  _143
REMARK   62  A    between atoms: _142  and  _145
REMARK   63  A    between atoms: _145  and  _146
REMARK   64  A    between atoms: _149  and  _151
REMARK   65  A    between atoms: _151  and  _152
REMARK   66  A    between atoms: _154  and  _156
REMARK   67  A    between atoms: _156  and  _157
REMARK   68  A    between atoms: _159  and  _161
REMARK   69  A    between atoms: _161  and  _162
REMARK   70  A    between atoms: _161  and  _164
REMARK   71  A    between atoms: _164  and  _165
REMARK   72  A    between atoms: _171  and  _173
REMARK   73  A    between atoms: _173  and  _174
REMARK   74  A    between atoms: _173  and  _176
REMARK   75  A    between atoms: _176  and  _177
REMARK   76  A    between atoms: _177  and  _178
REMARK   77  A    between atoms: _180  and  _182
REMARK   78  A    between atoms: _182  and  _183
REMARK   79  A    between atoms: _182  and  _185
REMARK   80  A    between atoms: _185  and  _186
REMARK   81  A    between atoms: _189  and  _191
REMARK   82  A    between atoms: _191  and  _192
REMARK   83  A    between atoms: _191  and  _194
REMARK   84  A    between atoms: _194  and  _195
REMARK   85  A    between atoms: _199  and  _200
REMARK   86  A    between atoms: _205  and  _207
REMARK   87  A    between atoms: _207  and  _208
REMARK   88  A    between atoms: _211  and  _213
REMARK   89  A    between atoms: _213  and  _214
REMARK   90  A    between atoms: _213  and  _216
REMARK   91  A    between atoms: _216  and  _217
REMARK   92  A    between atoms: _222  and  _224
REMARK   93  A    between atoms: _224  and  _225
REMARK   94  A    between atoms: _224  and  _227
REMARK   95  A    between atoms: _227  and  _228
REMARK   96  A    between atoms: _231  and  _233
REMARK   97  A    between atoms: _233  and  _234
REMARK   98  A    between atoms: _233  and  _236
REMARK   99  A    between atoms: _236  and  _237
REMARK  100  A    between atoms: _240  and  _242
REMARK  101  A    between atoms: _242  and  _243
REMARK  102  A    between atoms: _245  and  _247
REMARK  103  A    between atoms: _247  and  _248
REMARK  104  A    between atoms: _247  and  _250
REMARK  105  A    between atoms: _250  and  _251
REMARK  106  A    between atoms: _251  and  _252
REMARK  107  A    between atoms: _252  and  _253
REMARK  108  A    between atoms: _262  and  _264
REMARK  109  A    between atoms: _264  and  _265
REMARK  110  A    between atoms: _264  and  _267
REMARK  111  A    between atoms: _267  and  _268
REMARK  112  A    between atoms: _273  and  _275
REMARK  113  A    between atoms: _275  and  _276
REMARK  114  A    between atoms: _275  and  _278
REMARK  115  A    between atoms: _278  and  _279
REMARK  116  A    between atoms: _279  and  _280
REMARK  117  A    between atoms: _280  and  _281
REMARK  118  A    between atoms: _290  and  _292
REMARK  119  A    between atoms: _292  and  _293
REMARK  120  A    between atoms: _292  and  _295
REMARK  121  A    between atoms: _295  and  _296
REMARK  122  A    between atoms: _302  and  _304
REMARK  123  A    between atoms: _304  and  _305
REMARK  124  A    between atoms: _304  and  _307
REMARK  125  A    between atoms: _307  and  _308
REMARK  126  A    between atoms: _311  and  _313
REMARK  127  A    between atoms: _313  and  _314
REMARK  128  A    between atoms: _313  and  _316
REMARK  129  A    between atoms: _316  and  _317
REMARK  130  A    between atoms: _320  and  _322
REMARK  131  A    between atoms: _322  and  _323
REMARK  132  A    between atoms: _322  and  _325
REMARK  133  A    between atoms: _325  and  _326
REMARK  134  A    between atoms: _329  and  _331
REMARK  135  A    between atoms: _331  and  _332
REMARK  136  A    between atoms: _331  and  _334
REMARK  137  A    between atoms: _334  and  _335
REMARK  138  A    between atoms: _338  and  _340
REMARK  139  A    between atoms: _340  and  _341
REMARK  140  A    between atoms: _343  and  _345
REMARK  141  A    between atoms: _345  and  _346
REMARK  142  A    between atoms: _349  and  _351
REMARK  143  A    between atoms: _351  and  _352
REMARK  144  A    between atoms: _351  and  _354
REMARK  145  A    between atoms: _354  and  _355
REMARK  146  A    between atoms: _358  and  _360
REMARK  147  A    between atoms: _360  and  _361
REMARK  148  A    between atoms: _360  and  _363
REMARK  149  A    between atoms: _363  and  _364
REMARK  150  A    between atoms: _367  and  _369
REMARK  151  A    between atoms: _369  and  _370
REMARK  152  A    between atoms: _369  and  _372
REMARK  153  A    between atoms: _372  and  _373
REMARK  154  A    between atoms: _376  and  _378
REMARK  155  A    between atoms: _378  and  _379
REMARK  156  A    between atoms: _378  and  _381
REMARK  157  A    between atoms: _381  and  _382
REMARK  158  A    between atoms: _385  and  _387
REMARK  159  A    between atoms: _387  and  _388
REMARK  160  A    between atoms: _387  and  _390
REMARK  161  A    between atoms: _390  and  _391
REMARK  162  A    between atoms: _391  and  _392
REMARK  163  A    between atoms: _395  and  _397
REMARK  164  A    between atoms: _397  and  _398
REMARK  165  A    between atoms: _397  and  _400
REMARK  166  A    between atoms: _400  and  _401
REMARK  167  A    between atoms: _401  and  _402
REMARK  168  A    between atoms: _402  and  _403
REMARK  169  A    between atoms: _403  and  _404
REMARK  170  A    between atoms: _408  and  _410
REMARK  171  A    between atoms: _410  and  _411
REMARK  172  A    between atoms: _410  and  _413
REMARK  173  A    between atoms: _416  and  _418
REMARK  174  A    between atoms: _418  and  _419
REMARK  175  A    between atoms: _418  and  _421
REMARK  176  A    between atoms: _424  and  _426
REMARK  177  A    between atoms: _426  and  _427
REMARK  178  A    between atoms: _429  and  _431
REMARK  179  A    between atoms: _431  and  _432
REMARK  180  A    between atoms: _434  and  _436
REMARK  181  A    between atoms: _436  and  _437
REMARK  182  A    between atoms: _436  and  _439
REMARK  183  A    between atoms: _439  and  _440
REMARK  184  A    between atoms: _443  and  _445
REMARK  185  A    between atoms: _445  and  _446
REMARK  186  A    between atoms: _448  and  _450
REMARK  187  A    between atoms: _450  and  _451
REMARK  188  A    between atoms: _453  and  _455
REMARK  189  A    between atoms: _455  and  _456
REMARK  190  A    between atoms: _455  and  _458
REMARK  191  A    between atoms: _458  and  _459
REMARK  192  A    between atoms: _459  and  _460
REMARK  193  A    between atoms: _462  and  _464
REMARK  194  A    between atoms: _464  and  _465
REMARK  195  A    between atoms: _464  and  _467
REMARK  196  A    between atoms: _470  and  _472
REMARK  197  A    between atoms: _472  and  _473
REMARK  198  A    between atoms: _472  and  _475
REMARK  199  A    between atoms: _475  and  _476
REMARK  200  A    between atoms: _480  and  _481
REMARK  201  A    between atoms: _486  and  _488
REMARK  202  A    between atoms: _488  and  _489
REMARK  203  A    between atoms: _488  and  _491
REMARK  204  A    between atoms: _491  and  _492
REMARK  205  A    between atoms: _496  and  _497
REMARK  206  A    between atoms: _502  and  _504
REMARK  207  A    between atoms: _504  and  _505
REMARK  208  A    between atoms: _508  and  _510
REMARK  209  A    between atoms: _510  and  _511
REMARK  210  A    between atoms: _510  and  _513
REMARK  211  A    between atoms: _513  and  _514
REMARK  212  A    between atoms: _519  and  _521
REMARK  213  A    between atoms: _521  and  _522
REMARK  214  A    between atoms: _521  and  _524
REMARK  215  A    between atoms: _524  and  _525
REMARK  216  A    between atoms: _528  and  _530
REMARK  217  A    between atoms: _530  and  _531
REMARK  218  A    between atoms: _530  and  _533
REMARK  219  A    between atoms: _533  and  _534
REMARK  220  A    between atoms: _537  and  _539
REMARK  221  A    between atoms: _539  and  _540
REMARK  222  A    between atoms: _542  and  _544
REMARK  223  A    between atoms: _544  and  _545
REMARK  224  A    between atoms: _544  and  _547
REMARK  225  A    between atoms: _547  and  _548
REMARK  226  A    between atoms: _548  and  _549
REMARK  227  A    between atoms: _549  and  _550
REMARK  228  A    between atoms: _559  and  _561
REMARK  229  A    between atoms: _561  and  _562
REMARK  230  A    between atoms: _561  and  _564
REMARK  231  A    between atoms: _564  and  _565
REMARK                            x       y       z     vdW  Elec       q    Type
REMARK                         _______ _______ _______ _____ _____    ______ ____
ROOT
ATOM      1  O   HOH     1      -8.910  47.871  -0.206  0.00  0.00    +0.000 OA
ENDROOT
TORSDOF 0
REMARK  Name = ../refined-set-2016/4m8y/4m8y_pocket.pdb
REMARK  231 active torsions:
REMARK  status: ('A' for Active; 'I' for Inactive)
REMARK    1  A    between atoms: _1  and  _3
REMARK    2  A    between atoms: _3  and  _4
REMARK    3  A    between atoms: _3  and  _6
REMARK    4  A    between atoms: _6  and  _7
REMARK    5  A    between atoms: _7  and  _8
REMARK    6  A    between atoms: _8  and  _9
REMARK    7  A    between atoms: _18  and  _20
REMARK    8  A    between atoms: _20  and  _21
REMARK    9  A    between atoms: _20  and  _23
REMARK   10  A    between atoms: _23  and  _24
REMARK   11  A    between atoms: _27  and  _29
REMARK   12  A    between atoms: _29  and  _30
REMARK   13  A    between atoms: _29  and  _32
REMARK   14  A    between atoms: _32  and  _33
REMARK   15  A    between atoms: _36  and  _38
REMARK   16  A    between atoms: _38  and  _39
REMARK   17  A    between atoms: _38  and  _41
REMARK   18  A    between atoms: _41  and  _42
REMARK   19  A    between atoms: _45  and  _47
REMARK   20  A    between atoms: _47  and  _48
REMARK   21  A    between atoms: _47  and  _50
REMARK   22  A    between atoms: _50  and  _51
REMARK   23  A    between atoms: _54  and  _56
REMARK   24  A    between atoms: _56  and  _57
REMARK   25  A    between atoms: _59  and  _61
REMARK   26  A    between atoms: _61  and  _62
REMARK   27  A    between atoms: _65  and  _67
REMARK   28  A    between atoms: _67  and  _68
REMARK   29  A    between atoms: _67  and  _70
REMARK   30  A    between atoms: _70  and  _71
REMARK   31  A    between atoms: _74  and  _76
REMARK   32  A    between atoms: _76  and  _77
REMARK   33  A    between atoms: _76  and  _79
REMARK   34  A    between atoms: _79  and  _80
REMARK   35  A    between atoms: _83  and  _85
REMARK   36  A    between atoms: _85  and  _86
REMARK   37  A    between atoms: _85  and  _88
REMARK   38  A    between atoms: _88  and  _89
REMARK   39  A    between atoms: _92  and  _94
REMARK   40  A    between atoms: _94  and  _95
REMARK   41  A    between atoms: _94  and  _97
REMARK   42  A    between atoms: _97  and  _98
REMARK   43  A    between atoms: _101  and  _103
REMARK   44  A    between atoms: _103  and  _104
REMARK   45  A    between atoms: _103  and  _106
REMARK   46  A    between atoms: _106  and  _107
REMARK   47  A    between atoms: _107  and  _108
REMARK   48  A    between atoms: _108  and  _109
REMARK   49  A    between atoms: _109  and  _110
REMARK   50  A    between atoms: _114  and  _116
REMARK   51  A    between atoms: _116  and  _117
REMARK   52  A    between atoms: _116  and  _119
REMARK   53  A    between atoms: _122  and  _124
REMARK   54  A    between atoms: _124  and  _125
REMARK   55  A    between atoms: _124  and  _127
REMARK   56  A    between atoms: _130  and  _132
REMARK   57  A    between atoms: _132  and  _133
REMARK   58  A    between atoms: _135  and  _137
REMARK   59  A    between atoms: _137  and  _138
REMARK   60  A    between atoms: _140  and  _142
REMARK   61  A    between atoms: _142  and  _143
REMARK   62  A    between atoms: _142  and  _145
REMARK   63  A    between atoms: _145  and  _146
REMARK   64  A    between atoms: _149  and  _151
REMARK   65  A    between atoms: _151  and  _152
REMARK   66  A    between atoms: _154  and  _156
REMARK   67  A    between atoms: _156  and  _157
REMARK   68  A    between atoms: _159  and  _161
REMARK   69  A    between atoms: _161  and  _162
REMARK   70  A    between atoms: _161  and  _164
REMARK   71  A    between atoms: _164  and  _165
REMARK   72  A    between atoms: _171  and  _173
REMARK   73  A    between atoms: _173  and  _174
REMARK   74  A    between atoms: _173  and  _176
REMARK   75  A    between atoms: _176  and  _177
REMARK   76  A    between atoms: _177  and  _178
REMARK   77  A    between atoms: _180  and  _182
REMARK   78  A    between atoms: _182  and  _183
REMARK   79  A    between atoms: _182  and  _185
REMARK   80  A    between atoms: _185  and  _186
REMARK   81  A    between atoms: _189  and  _191
REMARK   82  A    between atoms: _191  and  _192
REMARK   83  A    between atoms: _191  and  _194
REMARK   84  A    between atoms: _194  and  _195
REMARK   85  A    between atoms: _199  and  _200
REMARK   86  A    between atoms: _205  and  _207
REMARK   87  A    between atoms: _207  and  _208
REMARK   88  A    between atoms: _211  and  _213
REMARK   89  A    between atoms: _213  and  _214
REMARK   90  A    between atoms: _213  and  _216
REMARK   91  A    between atoms: _216  and  _217
REMARK   92  A    between atoms: _222  and  _224
REMARK   93  A    between atoms: _224  and  _225
REMARK   94  A    between atoms: _224  and  _227
REMARK   95  A    between atoms: _227  and  _228
REMARK   96  A    between atoms: _231  and  _233
REMARK   97  A    between atoms: _233  and  _234
REMARK   98  A    between atoms: _233  and  _236
REMARK   99  A    between atoms: _236  and  _237
REMARK  100  A    between atoms: _240  and  _242
REMARK  101  A    between atoms: _242  and  _243
REMARK  102  A    between atoms: _245  and  _247
REMARK  103  A    between atoms: _247  and  _248
REMARK  104  A    between atoms: _247  and  _250
REMARK  105  A    between atoms: _250  and  _251
REMARK  106  A    between atoms: _251  and  _252
REMARK  107  A    between atoms: _252  and  _253
REMARK  108  A    between atoms: _262  and  _264
REMARK  109  A    between atoms: _264  and  _265
REMARK  110  A    between atoms: _264  and  _267
REMARK  111  A    between atoms: _267  and  _268
REMARK  112  A    between atoms: _273  and  _275
REMARK  113  A    between atoms: _275  and  _276
REMARK  114  A    between atoms: _275  and  _278
REMARK  115  A    between atoms: _278  and  _279
REMARK  116  A    between atoms: _279  and  _280
REMARK  117  A    between atoms: _280  and  _281
REMARK  118  A    between atoms: _290  and  _292
REMARK  119  A    between atoms: _292  and  _293
REMARK  120  A    between atoms: _292  and  _295
REMARK  121  A    between atoms: _295  and  _296
REMARK  122  A    between atoms: _302  and  _304
REMARK  123  A    between atoms: _304  and  _305
REMARK  124  A    between atoms: _304  and  _307
REMARK  125  A    between atoms: _307  and  _308
REMARK  126  A    between atoms: _311  and  _313
REMARK  127  A    between atoms: _313  and  _314
REMARK  128  A    between atoms: _313  and  _316
REMARK  129  A    between atoms: _316  and  _317
REMARK  130  A    between atoms: _320  and  _322
REMARK  131  A    between atoms: _322  and  _323
REMARK  132  A    between atoms: _322  and  _325
REMARK  133  A    between atoms: _325  and  _326
REMARK  134  A    between atoms: _329  and  _331
REMARK  135  A    between atoms: _331  and  _332
REMARK  136  A    between atoms: _331  and  _334
REMARK  137  A    between atoms: _334  and  _335
REMARK  138  A    between atoms: _338  and  _340
REMARK  139  A    between atoms: _340  and  _341
REMARK  140  A    between atoms: _343  and  _345
REMARK  141  A    between atoms: _345  and  _346
REMARK  142  A    between atoms: _349  and  _351
REMARK  143  A    between atoms: _351  and  _352
REMARK  144  A    between atoms: _351  and  _354
REMARK  145  A    between atoms: _354  and  _355
REMARK  146  A    between atoms: _358  and  _360
REMARK  147  A    between atoms: _360  and  _361
REMARK  148  A    between atoms: _360  and  _363
REMARK  149  A    between atoms: _363  and  _364
REMARK  150  A    between atoms: _367  and  _369
REMARK  151  A    between atoms: _369  and  _370
REMARK  152  A    between atoms: _369  and  _372
REMARK  153  A    between atoms: _372  and  _373
REMARK  154  A    between atoms: _376  and  _378
REMARK  155  A    between atoms: _378  and  _379
REMARK  156  A    between atoms: _378  and  _381
REMARK  157  A    between atoms: _381  and  _382
REMARK  158  A    between atoms: _385  and  _387
REMARK  159  A    between atoms: _387  and  _388
REMARK  160  A    between atoms: _387  and  _390
REMARK  161  A    between atoms: _390  and  _391
REMARK  162  A    between atoms: _391  and  _392
REMARK  163  A    between atoms: _395  and  _397
REMARK  164  A    between atoms: _397  and  _398
REMARK  165  A    between atoms: _397  and  _400
REMARK  166  A    between atoms: _400  and  _401
REMARK  167  A    between atoms: _401  and  _402
REMARK  168  A    between atoms: _402  and  _403
REMARK  169  A    between atoms: _403  and  _404
REMARK  170  A    between atoms: _408  and  _410
REMARK  171  A    between atoms: _410  and  _411
REMARK  172  A    between atoms: _410  and  _413
REMARK  173  A    between atoms: _416  and  _418
REMARK  174  A    between atoms: _418  and  _419
REMARK  175  A    between atoms: _418  and  _421
REMARK  176  A    between atoms: _424  and  _426
REMARK  177  A    between atoms: _426  and  _427
REMARK  178  A    between atoms: _429  and  _431
REMARK  179  A    between atoms: _431  and  _432
REMARK  180  A    between atoms: _434  and  _436
REMARK  181  A    between atoms: _436  and  _437
REMARK  182  A    between atoms: _436  and  _439
REMARK  183  A    between atoms: _439  and  _440
REMARK  184  A    between atoms: _443  and  _445
REMARK  185  A    between atoms: _445  and  _446
REMARK  186  A    between atoms: _448  and  _450
REMARK  187  A    between atoms: _450  and  _451
REMARK  188  A    between atoms: _453  and  _455
REMARK  189  A    between atoms: _455  and  _456
REMARK  190  A    between atoms: _455  and  _458
REMARK  191  A    between atoms: _458  and  _459
REMARK  192  A    between atoms: _459  and  _460
REMARK  193  A    between atoms: _462  and  _464
REMARK  194  A    between atoms: _464  and  _465
REMARK  195  A    between atoms: _464  and  _467
REMARK  196  A    between atoms: _470  and  _472
REMARK  197  A    between atoms: _472  and  _473
REMARK  198  A    between atoms: _472  and  _475
REMARK  199  A    between atoms: _475  and  _476
REMARK  200  A    between atoms: _480  and  _481
REMARK  201  A    between atoms: _486  and  _488
REMARK  202  A    between atoms: _488  and  _489
REMARK  203  A    between atoms: _488  and  _491
REMARK  204  A    between atoms: _491  and  _492
REMARK  205  A    between atoms: _496  and  _497
REMARK  206  A    between atoms: _502  and  _504
REMARK  207  A    between atoms: _504  and  _505
REMARK  208  A    between atoms: _508  and  _510
REMARK  209  A    between atoms: _510  and  _511
REMARK  210  A    between atoms: _510  and  _513
REMARK  211  A    between atoms: _513  and  _514
REMARK  212  A    between atoms: _519  and  _521
REMARK  213  A    between atoms: _521  and  _522
REMARK  214  A    between atoms: _521  and  _524
REMARK  215  A    between atoms: _524  and  _525
REMARK  216  A    between atoms: _528  and  _530
REMARK  217  A    between atoms: _530  and  _531
REMARK  218  A    between atoms: _530  and  _533
REMARK  219  A    between atoms: _533  and  _534
REMARK  220  A    between atoms: _537  and  _539
REMARK  221  A    between atoms: _539  and  _540
REMARK  222  A    between atoms: _542  and  _544
REMARK  223  A    between atoms: _544  and  _545
REMARK  224  A    between atoms: _544  and  _547
REMARK  225  A    between atoms: _547  and  _548
REMARK  226  A    between atoms: _548  and  _549
REMARK  227  A    between atoms: _549  and  _550
REMARK  228  A    between atoms: _559  and  _561
REMARK  229  A    between atoms: _561  and  _562
REMARK  230  A    between atoms: _561  and  _564
REMARK  231  A    between atoms: _564  and  _565
REMARK                            x       y       z     vdW  Elec       q    Type
REMARK                         _______ _______ _______ _____ _____    ______ ____
ROOT
ATOM      1  O   HOH     1     -16.153  49.378  -4.244  0.00  0.00    +0.000 OA
ENDROOT
TORSDOF 0
REMARK  Name = ../refined-set-2016/4m8y/4m8y_pocket.pdb
REMARK  231 active torsions:
REMARK  status: ('A' for Active; 'I' for Inactive)
REMARK    1  A    between atoms: _1  and  _3
REMARK    2  A    between atoms: _3  and  _4
REMARK    3  A    between atoms: _3  and  _6
REMARK    4  A    between atoms: _6  and  _7
REMARK    5  A    between atoms: _7  and  _8
REMARK    6  A    between atoms: _8  and  _9
REMARK    7  A    between atoms: _18  and  _20
REMARK    8  A    between atoms: _20  and  _21
REMARK    9  A    between atoms: _20  and  _23
REMARK   10  A    between atoms: _23  and  _24
REMARK   11  A    between atoms: _27  and  _29
REMARK   12  A    between atoms: _29  and  _30
REMARK   13  A    between atoms: _29  and  _32
REMARK   14  A    between atoms: _32  and  _33
REMARK   15  A    between atoms: _36  and  _38
REMARK   16  A    between atoms: _38  and  _39
REMARK   17  A    between atoms: _38  and  _41
REMARK   18  A    between atoms: _41  and  _42
REMARK   19  A    between atoms: _45  and  _47
REMARK   20  A    between atoms: _47  and  _48
REMARK   21  A    between atoms: _47  and  _50
REMARK   22  A    between atoms: _50  and  _51
REMARK   23  A    between atoms: _54  and  _56
REMARK   24  A    between atoms: _56  and  _57
REMARK   25  A    between atoms: _59  and  _61
REMARK   26  A    between atoms: _61  and  _62
REMARK   27  A    between atoms: _65  and  _67
REMARK   28  A    between atoms: _67  and  _68
REMARK   29  A    between atoms: _67  and  _70
REMARK   30  A    between atoms: _70  and  _71
REMARK   31  A    between atoms: _74  and  _76
REMARK   32  A    between atoms: _76  and  _77
REMARK   33  A    between atoms: _76  and  _79
REMARK   34  A    between atoms: _79  and  _80
REMARK   35  A    between atoms: _83  and  _85
REMARK   36  A    between atoms: _85  and  _86
REMARK   37  A    between atoms: _85  and  _88
REMARK   38  A    between atoms: _88  and  _89
REMARK   39  A    between atoms: _92  and  _94
REMARK   40  A    between atoms: _94  and  _95
REMARK   41  A    between atoms: _94  and  _97
REMARK   42  A    between atoms: _97  and  _98
REMARK   43  A    between atoms: _101  and  _103
REMARK   44  A    between atoms: _103  and  _104
REMARK   45  A    between atoms: _103  and  _106
REMARK   46  A    between atoms: _106  and  _107
REMARK   47  A    between atoms: _107  and  _108
REMARK   48  A    between atoms: _108  and  _109
REMARK   49  A    between atoms: _109  and  _110
REMARK   50  A    between atoms: _114  and  _116
REMARK   51  A    between atoms: _116  and  _117
REMARK   52  A    between atoms: _116  and  _119
REMARK   53  A    between atoms: _122  and  _124
REMARK   54  A    between atoms: _124  and  _125
REMARK   55  A    between atoms: _124  and  _127
REMARK   56  A    between atoms: _130  and  _132
REMARK   57  A    between atoms: _132  and  _133
REMARK   58  A    between atoms: _135  and  _137
REMARK   59  A    between atoms: _137  and  _138
REMARK   60  A    between atoms: _140  and  _142
REMARK   61  A    between atoms: _142  and  _143
REMARK   62  A    between atoms: _142  and  _145
REMARK   63  A    between atoms: _145  and  _146
REMARK   64  A    between atoms: _149  and  _151
REMARK   65  A    between atoms: _151  and  _152
REMARK   66  A    between atoms: _154  and  _156
REMARK   67  A    between atoms: _156  and  _157
REMARK   68  A    between atoms: _159  and  _161
REMARK   69  A    between atoms: _161  and  _162
REMARK   70  A    between atoms: _161  and  _164
REMARK   71  A    between atoms: _164  and  _165
REMARK   72  A    between atoms: _171  and  _173
REMARK   73  A    between atoms: _173  and  _174
REMARK   74  A    between atoms: _173  and  _176
REMARK   75  A    between atoms: _176  and  _177
REMARK   76  A    between atoms: _177  and  _178
REMARK   77  A    between atoms: _180  and  _182
REMARK   78  A    between atoms: _182  and  _183
REMARK   79  A    between atoms: _182  and  _185
REMARK   80  A    between atoms: _185  and  _186
REMARK   81  A    between atoms: _189  and  _191
REMARK   82  A    between atoms: _191  and  _192
REMARK   83  A    between atoms: _191  and  _194
REMARK   84  A    between atoms: _194  and  _195
REMARK   85  A    between atoms: _199  and  _200
REMARK   86  A    between atoms: _205  and  _207
REMARK   87  A    between atoms: _207  and  _208
REMARK   88  A    between atoms: _211  and  _213
REMARK   89  A    between atoms: _213  and  _214
REMARK   90  A    between atoms: _213  and  _216
REMARK   91  A    between atoms: _216  and  _217
REMARK   92  A    between atoms: _222  and  _224
REMARK   93  A    between atoms: _224  and  _225
REMARK   94  A    between atoms: _224  and  _227
REMARK   95  A    between atoms: _227  and  _228
REMARK   96  A    between atoms: _231  and  _233
REMARK   97  A    between atoms: _233  and  _234
REMARK   98  A    between atoms: _233  and  _236
REMARK   99  A    between atoms: _236  and  _237
REMARK  100  A    between atoms: _240  and  _242
REMARK  101  A    between atoms: _242  and  _243
REMARK  102  A    between atoms: _245  and  _247
REMARK  103  A    between atoms: _247  and  _248
REMARK  104  A    between atoms: _247  and  _250
REMARK  105  A    between atoms: _250  and  _251
REMARK  106  A    between atoms: _251  and  _252
REMARK  107  A    between atoms: _252  and  _253
REMARK  108  A    between atoms: _262  and  _264
REMARK  109  A    between atoms: _264  and  _265
REMARK  110  A    between atoms: _264  and  _267
REMARK  111  A    between atoms: _267  and  _268
REMARK  112  A    between atoms: _273  and  _275
REMARK  113  A    between atoms: _275  and  _276
REMARK  114  A    between atoms: _275  and  _278
REMARK  115  A    between atoms: _278  and  _279
REMARK  116  A    between atoms: _279  and  _280
REMARK  117  A    between atoms: _280  and  _281
REMARK  118  A    between atoms: _290  and  _292
REMARK  119  A    between atoms: _292  and  _293
REMARK  120  A    between atoms: _292  and  _295
REMARK  121  A    between atoms: _295  and  _296
REMARK  122  A    between atoms: _302  and  _304
REMARK  123  A    between atoms: _304  and  _305
REMARK  124  A    between atoms: _304  and  _307
REMARK  125  A    between atoms: _307  and  _308
REMARK  126  A    between atoms: _311  and  _313
REMARK  127  A    between atoms: _313  and  _314
REMARK  128  A    between atoms: _313  and  _316
REMARK  129  A    between atoms: _316  and  _317
REMARK  130  A    between atoms: _320  and  _322
REMARK  131  A    between atoms: _322  and  _323
REMARK  132  A    between atoms: _322  and  _325
REMARK  133  A    between atoms: _325  and  _326
REMARK  134  A    between atoms: _329  and  _331
REMARK  135  A    between atoms: _331  and  _332
REMARK  136  A    between atoms: _331  and  _334
REMARK  137  A    between atoms: _334  and  _335
REMARK  138  A    between atoms: _338  and  _340
REMARK  139  A    between atoms: _340  and  _341
REMARK  140  A    between atoms: _343  and  _345
REMARK  141  A    between atoms: _345  and  _346
REMARK  142  A    between atoms: _349  and  _351
REMARK  143  A    between atoms: _351  and  _352
REMARK  144  A    between atoms: _351  and  _354
REMARK  145  A    between atoms: _354  and  _355
REMARK  146  A    between atoms: _358  and  _360
REMARK  147  A    between atoms: _360  and  _361
REMARK  148  A    between atoms: _360  and  _363
REMARK  149  A    between atoms: _363  and  _364
REMARK  150  A    between atoms: _367  and  _369
REMARK  151  A    between atoms: _369  and  _370
REMARK  152  A    between atoms: _369  and  _372
REMARK  153  A    between atoms: _372  and  _373
REMARK  154  A    between atoms: _376  and  _378
REMARK  155  A    between atoms: _378  and  _379
REMARK  156  A    between atoms: _378  and  _381
REMARK  157  A    between atoms: _381  and  _382
REMARK  158  A    between atoms: _385  and  _387
REMARK  159  A    between atoms: _387  and  _388
REMARK  160  A    between atoms: _387  and  _390
REMARK  161  A    between atoms: _390  and  _391
REMARK  162  A    between atoms: _391  and  _392
REMARK  163  A    between atoms: _395  and  _397
REMARK  164  A    between atoms: _397  and  _398
REMARK  165  A    between atoms: _397  and  _400
REMARK  166  A    between atoms: _400  and  _401
REMARK  167  A    between atoms: _401  and  _402
REMARK  168  A    between atoms: _402  and  _403
REMARK  169  A    between atoms: _403  and  _404
REMARK  170  A    between atoms: _408  and  _410
REMARK  171  A    between atoms: _410  and  _411
REMARK  172  A    between atoms: _410  and  _413
REMARK  173  A    between atoms: _416  and  _418
REMARK  174  A    between atoms: _418  and  _419
REMARK  175  A    between atoms: _418  and  _421
REMARK  176  A    between atoms: _424  and  _426
REMARK  177  A    between atoms: _426  and  _427
REMARK  178  A    between atoms: _429  and  _431
REMARK  179  A    between atoms: _431  and  _432
REMARK  180  A    between atoms: _434  and  _436
REMARK  181  A    between atoms: _436  and  _437
REMARK  182  A    between atoms: _436  and  _439
REMARK  183  A    between atoms: _439  and  _440
REMARK  184  A    between atoms: _443  and  _445
REMARK  185  A    between atoms: _445  and  _446
REMARK  186  A    between atoms: _448  and  _450
REMARK  187  A    between atoms: _450  and  _451
REMARK  188  A    between atoms: _453  and  _455
REMARK  189  A    between atoms: _455  and  _456
REMARK  190  A    between atoms: _455  and  _458
REMARK  191  A    between atoms: _458  and  _459
REMARK  192  A    between atoms: _459  and  _460
REMARK  193  A    between atoms: _462  and  _464
REMARK  194  A    between atoms: _464  and  _465
REMARK  195  A    between atoms: _464  and  _467
REMARK  196  A    between atoms: _470  and  _472
REMARK  197  A    between atoms: _472  and  _473
REMARK  198  A    between atoms: _472  and  _475
REMARK  199  A    between atoms: _475  and  _476
REMARK  200  A    between atoms: _480  and  _481
REMARK  201  A    between atoms: _486  and  _488
REMARK  202  A    between atoms: _488  and  _489
REMARK  203  A    between atoms: _488  and  _491
REMARK  204  A    between atoms: _491  and  _492
REMARK  205  A    between atoms: _496  and  _497
REMARK  206  A    between atoms: _502  and  _504
REMARK  207  A    between atoms: _504  and  _505
REMARK  208  A    between atoms: _508  and  _510
REMARK  209  A    between atoms: _510  and  _511
REMARK  210  A    between atoms: _510  and  _513
REMARK  211  A    between atoms: _513  and  _514
REMARK  212  A    between atoms: _519  and  _521
REMARK  213  A    between atoms: _521  and  _522
REMARK  214  A    between atoms: _521  and  _524
REMARK  215  A    between atoms: _524  and  _525
REMARK  216  A    between atoms: _528  and  _530
REMARK  217  A    between atoms: _530  and  _531
REMARK  218  A    between atoms: _530  and  _533
REMARK  219  A    between atoms: _533  and  _534
REMARK  220  A    between atoms: _537  and  _539
REMARK  221  A    between atoms: _539  and  _540
REMARK  222  A    between atoms: _542  and  _544
REMARK  223  A    between atoms: _544  and  _545
REMARK  224  A    between atoms: _544  and  _547
REMARK  225  A    between atoms: _547  and  _548
REMARK  226  A    between atoms: _548  and  _549
REMARK  227  A    between atoms: _549  and  _550
REMARK  228  A    between atoms: _559  and  _561
REMARK  229  A    between atoms: _561  and  _562
REMARK  230  A    between atoms: _561  and  _564
REMARK  231  A    between atoms: _564  and  _565
REMARK                            x       y       z     vdW  Elec       q    Type
REMARK                         _______ _______ _______ _____ _____    ______ ____
ROOT
ATOM      1  O   HOH     1     -10.879  49.764  -1.206  0.00  0.00    +0.000 OA
ENDROOT
TORSDOF 0
REMARK  Name = ../refined-set-2016/4m8y/4m8y_pocket.pdb
REMARK  231 active torsions:
REMARK  status: ('A' for Active; 'I' for Inactive)
REMARK    1  A    between atoms: _1  and  _3
REMARK    2  A    between atoms: _3  and  _4
REMARK    3  A    between atoms: _3  and  _6
REMARK    4  A    between atoms: _6  and  _7
REMARK    5  A    between atoms: _7  and  _8
REMARK    6  A    between atoms: _8  and  _9
REMARK    7  A    between atoms: _18  and  _20
REMARK    8  A    between atoms: _20  and  _21
REMARK    9  A    between atoms: _20  and  _23
REMARK   10  A    between atoms: _23  and  _24
REMARK   11  A    between atoms: _27  and  _29
REMARK   12  A    between atoms: _29  and  _30
REMARK   13  A    between atoms: _29  and  _32
REMARK   14  A    between atoms: _32  and  _33
REMARK   15  A    between atoms: _36  and  _38
REMARK   16  A    between atoms: _38  and  _39
REMARK   17  A    between atoms: _38  and  _41
REMARK   18  A    between atoms: _41  and  _42
REMARK   19  A    between atoms: _45  and  _47
REMARK   20  A    between atoms: _47  and  _48
REMARK   21  A    between atoms: _47  and  _50
REMARK   22  A    between atoms: _50  and  _51
REMARK   23  A    between atoms: _54  and  _56
REMARK   24  A    between atoms: _56  and  _57
REMARK   25  A    between atoms: _59  and  _61
REMARK   26  A    between atoms: _61  and  _62
REMARK   27  A    between atoms: _65  and  _67
REMARK   28  A    between atoms: _67  and  _68
REMARK   29  A    between atoms: _67  and  _70
REMARK   30  A    between atoms: _70  and  _71
REMARK   31  A    between atoms: _74  and  _76
REMARK   32  A    between atoms: _76  and  _77
REMARK   33  A    between atoms: _76  and  _79
REMARK   34  A    between atoms: _79  and  _80
REMARK   35  A    between atoms: _83  and  _85
REMARK   36  A    between atoms: _85  and  _86
REMARK   37  A    between atoms: _85  and  _88
REMARK   38  A    between atoms: _88  and  _89
REMARK   39  A    between atoms: _92  and  _94
REMARK   40  A    between atoms: _94  and  _95
REMARK   41  A    between atoms: _94  and  _97
REMARK   42  A    between atoms: _97  and  _98
REMARK   43  A    between atoms: _101  and  _103
REMARK   44  A    between atoms: _103  and  _104
REMARK   45  A    between atoms: _103  and  _106
REMARK   46  A    between atoms: _106  and  _107
REMARK   47  A    between atoms: _107  and  _108
REMARK   48  A    between atoms: _108  and  _109
REMARK   49  A    between atoms: _109  and  _110
REMARK   50  A    between atoms: _114  and  _116
REMARK   51  A    between atoms: _116  and  _117
REMARK   52  A    between atoms: _116  and  _119
REMARK   53  A    between atoms: _122  and  _124
REMARK   54  A    between atoms: _124  and  _125
REMARK   55  A    between atoms: _124  and  _127
REMARK   56  A    between atoms: _130  and  _132
REMARK   57  A    between atoms: _132  and  _133
REMARK   58  A    between atoms: _135  and  _137
REMARK   59  A    between atoms: _137  and  _138
REMARK   60  A    between atoms: _140  and  _142
REMARK   61  A    between atoms: _142  and  _143
REMARK   62  A    between atoms: _142  and  _145
REMARK   63  A    between atoms: _145  and  _146
REMARK   64  A    between atoms: _149  and  _151
REMARK   65  A    between atoms: _151  and  _152
REMARK   66  A    between atoms: _154  and  _156
REMARK   67  A    between atoms: _156  and  _157
REMARK   68  A    between atoms: _159  and  _161
REMARK   69  A    between atoms: _161  and  _162
REMARK   70  A    between atoms: _161  and  _164
REMARK   71  A    between atoms: _164  and  _165
REMARK   72  A    between atoms: _171  and  _173
REMARK   73  A    between atoms: _173  and  _174
REMARK   74  A    between atoms: _173  and  _176
REMARK   75  A    between atoms: _176  and  _177
REMARK   76  A    between atoms: _177  and  _178
REMARK   77  A    between atoms: _180  and  _182
REMARK   78  A    between atoms: _182  and  _183
REMARK   79  A    between atoms: _182  and  _185
REMARK   80  A    between atoms: _185  and  _186
REMARK   81  A    between atoms: _189  and  _191
REMARK   82  A    between atoms: _191  and  _192
REMARK   83  A    between atoms: _191  and  _194
REMARK   84  A    between atoms: _194  and  _195
REMARK   85  A    between atoms: _199  and  _200
REMARK   86  A    between atoms: _205  and  _207
REMARK   87  A    between atoms: _207  and  _208
REMARK   88  A    between atoms: _211  and  _213
REMARK   89  A    between atoms: _213  and  _214
REMARK   90  A    between atoms: _213  and  _216
REMARK   91  A    between atoms: _216  and  _217
REMARK   92  A    between atoms: _222  and  _224
REMARK   93  A    between atoms: _224  and  _225
REMARK   94  A    between atoms: _224  and  _227
REMARK   95  A    between atoms: _227  and  _228
REMARK   96  A    between atoms: _231  and  _233
REMARK   97  A    between atoms: _233  and  _234
REMARK   98  A    between atoms: _233  and  _236
REMARK   99  A    between atoms: _236  and  _237
REMARK  100  A    between atoms: _240  and  _242
REMARK  101  A    between atoms: _242  and  _243
REMARK  102  A    between atoms: _245  and  _247
REMARK  103  A    between atoms: _247  and  _248
REMARK  104  A    between atoms: _247  and  _250
REMARK  105  A    between atoms: _250  and  _251
REMARK  106  A    between atoms: _251  and  _252
REMARK  107  A    between atoms: _252  and  _253
REMARK  108  A    between atoms: _262  and  _264
REMARK  109  A    between atoms: _264  and  _265
REMARK  110  A    between atoms: _264  and  _267
REMARK  111  A    between atoms: _267  and  _268
REMARK  112  A    between atoms: _273  and  _275
REMARK  113  A    between atoms: _275  and  _276
REMARK  114  A    between atoms: _275  and  _278
REMARK  115  A    between atoms: _278  and  _279
REMARK  116  A    between atoms: _279  and  _280
REMARK  117  A    between atoms: _280  and  _281
REMARK  118  A    between atoms: _290  and  _292
REMARK  119  A    between atoms: _292  and  _293
REMARK  120  A    between atoms: _292  and  _295
REMARK  121  A    between atoms: _295  and  _296
REMARK  122  A    between atoms: _302  and  _304
REMARK  123  A    between atoms: _304  and  _305
REMARK  124  A    between atoms: _304  and  _307
REMARK  125  A    between atoms: _307  and  _308
REMARK  126  A    between atoms: _311  and  _313
REMARK  127  A    between atoms: _313  and  _314
REMARK  128  A    between atoms: _313  and  _316
REMARK  129  A    between atoms: _316  and  _317
REMARK  130  A    between atoms: _320  and  _322
REMARK  131  A    between atoms: _322  and  _323
REMARK  132  A    between atoms: _322  and  _325
REMARK  133  A    between atoms: _325  and  _326
REMARK  134  A    between atoms: _329  and  _331
REMARK  135  A    between atoms: _331  and  _332
REMARK  136  A    between atoms: _331  and  _334
REMARK  137  A    between atoms: _334  and  _335
REMARK  138  A    between atoms: _338  and  _340
REMARK  139  A    between atoms: _340  and  _341
REMARK  140  A    between atoms: _343  and  _345
REMARK  141  A    between atoms: _345  and  _346
REMARK  142  A    between atoms: _349  and  _351
REMARK  143  A    between atoms: _351  and  _352
REMARK  144  A    between atoms: _351  and  _354
REMARK  145  A    between atoms: _354  and  _355
REMARK  146  A    between atoms: _358  and  _360
REMARK  147  A    between atoms: _360  and  _361
REMARK  148  A    between atoms: _360  and  _363
REMARK  149  A    between atoms: _363  and  _364
REMARK  150  A    between atoms: _367  and  _369
REMARK  151  A    between atoms: _369  and  _370
REMARK  152  A    between atoms: _369  and  _372
REMARK  153  A    between atoms: _372  and  _373
REMARK  154  A    between atoms: _376  and  _378
REMARK  155  A    between atoms: _378  and  _379
REMARK  156  A    between atoms: _378  and  _381
REMARK  157  A    between atoms: _381  and  _382
REMARK  158  A    between atoms: _385  and  _387
REMARK  159  A    between atoms: _387  and  _388
REMARK  160  A    between atoms: _387  and  _390
REMARK  161  A    between atoms: _390  and  _391
REMARK  162  A    between atoms: _391  and  _392
REMARK  163  A    between atoms: _395  and  _397
REMARK  164  A    between atoms: _397  and  _398
REMARK  165  A    between atoms: _397  and  _400
REMARK  166  A    between atoms: _400  and  _401
REMARK  167  A    between atoms: _401  and  _402
REMARK  168  A    between atoms: _402  and  _403
REMARK  169  A    between atoms: _403  and  _404
REMARK  170  A    between atoms: _408  and  _410
REMARK  171  A    between atoms: _410  and  _411
REMARK  172  A    between atoms: _410  and  _413
REMARK  173  A    between atoms: _416  and  _418
REMARK  174  A    between atoms: _418  and  _419
REMARK  175  A    between atoms: _418  and  _421
REMARK  176  A    between atoms: _424  and  _426
REMARK  177  A    between atoms: _426  and  _427
REMARK  178  A    between atoms: _429  and  _431
REMARK  179  A    between atoms: _431  and  _432
REMARK  180  A    between atoms: _434  and  _436
REMARK  181  A    between atoms: _436  and  _437
REMARK  182  A    between atoms: _436  and  _439
REMARK  183  A    between atoms: _439  and  _440
REMARK  184  A    between atoms: _443  and  _445
REMARK  185  A    between atoms: _445  and  _446
REMARK  186  A    between atoms: _448  and  _450
REMARK  187  A    between atoms: _450  and  _451
REMARK  188  A    between atoms: _453  and  _455
REMARK  189  A    between atoms: _455  and  _456
REMARK  190  A    between atoms: _455  and  _458
REMARK  191  A    between atoms: _458  and  _459
REMARK  192  A    between atoms: _459  and  _460
REMARK  193  A    between atoms: _462  and  _464
REMARK  194  A    between atoms: _464  and  _465
REMARK  195  A    between atoms: _464  and  _467
REMARK  196  A    between atoms: _470  and  _472
REMARK  197  A    between atoms: _472  and  _473
REMARK  198  A    between atoms: _472  and  _475
REMARK  199  A    between atoms: _475  and  _476
REMARK  200  A    between atoms: _480  and  _481
REMARK  201  A    between atoms: _486  and  _488
REMARK  202  A    between atoms: _488  and  _489
REMARK  203  A    between atoms: _488  and  _491
REMARK  204  A    between atoms: _491  and  _492
REMARK  205  A    between atoms: _496  and  _497
REMARK  206  A    between atoms: _502  and  _504
REMARK  207  A    between atoms: _504  and  _505
REMARK  208  A    between atoms: _508  and  _510
REMARK  209  A    between atoms: _510  and  _511
REMARK  210  A    between atoms: _510  and  _513
REMARK  211  A    between atoms: _513  and  _514
REMARK  212  A    between atoms: _519  and  _521
REMARK  213  A    between atoms: _521  and  _522
REMARK  214  A    between atoms: _521  and  _524
REMARK  215  A    between atoms: _524  and  _525
REMARK  216  A    between atoms: _528  and  _530
REMARK  217  A    between atoms: _530  and  _531
REMARK  218  A    between atoms: _530  and  _533
REMARK  219  A    between atoms: _533  and  _534
REMARK  220  A    between atoms: _537  and  _539
REMARK  221  A    between atoms: _539  and  _540
REMARK  222  A    between atoms: _542  and  _544
REMARK  223  A    between atoms: _544  and  _545
REMARK  224  A    between atoms: _544  and  _547
REMARK  225  A    between atoms: _547  and  _548
REMARK  226  A    between atoms: _548  and  _549
REMARK  227  A    between atoms: _549  and  _550
REMARK  228  A    between atoms: _559  and  _561
REMARK  229  A    between atoms: _561  and  _562
REMARK  230  A    between atoms: _561  and  _564
REMARK  231  A    between atoms: _564  and  _565
REMARK                            x       y       z     vdW  Elec       q    Type
REMARK                         _______ _______ _______ _____ _____    ______ ____
ROOT
ATOM      1  O   HOH     1     -10.930  57.668   9.676  0.00  0.00    +0.000 OA
ENDROOT
TORSDOF 0
REMARK  Name = ../refined-set-2016/4m8y/4m8y_pocket.pdb
REMARK  231 active torsions:
REMARK  status: ('A' for Active; 'I' for Inactive)
REMARK    1  A    between atoms: _1  and  _3
REMARK    2  A    between atoms: _3  and  _4
REMARK    3  A    between atoms: _3  and  _6
REMARK    4  A    between atoms: _6  and  _7
REMARK    5  A    between atoms: _7  and  _8
REMARK    6  A    between atoms: _8  and  _9
REMARK    7  A    between atoms: _18  and  _20
REMARK    8  A    between atoms: _20  and  _21
REMARK    9  A    between atoms: _20  and  _23
REMARK   10  A    between atoms: _23  and  _24
REMARK   11  A    between atoms: _27  and  _29
REMARK   12  A    between atoms: _29  and  _30
REMARK   13  A    between atoms: _29  and  _32
REMARK   14  A    between atoms: _32  and  _33
REMARK   15  A    between atoms: _36  and  _38
REMARK   16  A    between atoms: _38  and  _39
REMARK   17  A    between atoms: _38  and  _41
REMARK   18  A    between atoms: _41  and  _42
REMARK   19  A    between atoms: _45  and  _47
REMARK   20  A    between atoms: _47  and  _48
REMARK   21  A    between atoms: _47  and  _50
REMARK   22  A    between atoms: _50  and  _51
REMARK   23  A    between atoms: _54  and  _56
REMARK   24  A    between atoms: _56  and  _57
REMARK   25  A    between atoms: _59  and  _61
REMARK   26  A    between atoms: _61  and  _62
REMARK   27  A    between atoms: _65  and  _67
REMARK   28  A    between atoms: _67  and  _68
REMARK   29  A    between atoms: _67  and  _70
REMARK   30  A    between atoms: _70  and  _71
REMARK   31  A    between atoms: _74  and  _76
REMARK   32  A    between atoms: _76  and  _77
REMARK   33  A    between atoms: _76  and  _79
REMARK   34  A    between atoms: _79  and  _80
REMARK   35  A    between atoms: _83  and  _85
REMARK   36  A    between atoms: _85  and  _86
REMARK   37  A    between atoms: _85  and  _88
REMARK   38  A    between atoms: _88  and  _89
REMARK   39  A    between atoms: _92  and  _94
REMARK   40  A    between atoms: _94  and  _95
REMARK   41  A    between atoms: _94  and  _97
REMARK   42  A    between atoms: _97  and  _98
REMARK   43  A    between atoms: _101  and  _103
REMARK   44  A    between atoms: _103  and  _104
REMARK   45  A    between atoms: _103  and  _106
REMARK   46  A    between atoms: _106  and  _107
REMARK   47  A    between atoms: _107  and  _108
REMARK   48  A    between atoms: _108  and  _109
REMARK   49  A    between atoms: _109  and  _110
REMARK   50  A    between atoms: _114  and  _116
REMARK   51  A    between atoms: _116  and  _117
REMARK   52  A    between atoms: _116  and  _119
REMARK   53  A    between atoms: _122  and  _124
REMARK   54  A    between atoms: _124  and  _125
REMARK   55  A    between atoms: _124  and  _127
REMARK   56  A    between atoms: _130  and  _132
REMARK   57  A    between atoms: _132  and  _133
REMARK   58  A    between atoms: _135  and  _137
REMARK   59  A    between atoms: _137  and  _138
REMARK   60  A    between atoms: _140  and  _142
REMARK   61  A    between atoms: _142  and  _143
REMARK   62  A    between atoms: _142  and  _145
REMARK   63  A    between atoms: _145  and  _146
REMARK   64  A    between atoms: _149  and  _151
REMARK   65  A    between atoms: _151  and  _152
REMARK   66  A    between atoms: _154  and  _156
REMARK   67  A    between atoms: _156  and  _157
REMARK   68  A    between atoms: _159  and  _161
REMARK   69  A    between atoms: _161  and  _162
REMARK   70  A    between atoms: _161  and  _164
REMARK   71  A    between atoms: _164  and  _165
REMARK   72  A    between atoms: _171  and  _173
REMARK   73  A    between atoms: _173  and  _174
REMARK   74  A    between atoms: _173  and  _176
REMARK   75  A    between atoms: _176  and  _177
REMARK   76  A    between atoms: _177  and  _178
REMARK   77  A    between atoms: _180  and  _182
REMARK   78  A    between atoms: _182  and  _183
REMARK   79  A    between atoms: _182  and  _185
REMARK   80  A    between atoms: _185  and  _186
REMARK   81  A    between atoms: _189  and  _191
REMARK   82  A    between atoms: _191  and  _192
REMARK   83  A    between atoms: _191  and  _194
REMARK   84  A    between atoms: _194  and  _195
REMARK   85  A    between atoms: _199  and  _200
REMARK   86  A    between atoms: _205  and  _207
REMARK   87  A    between atoms: _207  and  _208
REMARK   88  A    between atoms: _211  and  _213
REMARK   89  A    between atoms: _213  and  _214
REMARK   90  A    between atoms: _213  and  _216
REMARK   91  A    between atoms: _216  and  _217
REMARK   92  A    between atoms: _222  and  _224
REMARK   93  A    between atoms: _224  and  _225
REMARK   94  A    between atoms: _224  and  _227
REMARK   95  A    between atoms: _227  and  _228
REMARK   96  A    between atoms: _231  and  _233
REMARK   97  A    between atoms: _233  and  _234
REMARK   98  A    between atoms: _233  and  _236
REMARK   99  A    between atoms: _236  and  _237
REMARK  100  A    between atoms: _240  and  _242
REMARK  101  A    between atoms: _242  and  _243
REMARK  102  A    between atoms: _245  and  _247
REMARK  103  A    between atoms: _247  and  _248
REMARK  104  A    between atoms: _247  and  _250
REMARK  105  A    between atoms: _250  and  _251
REMARK  106  A    between atoms: _251  and  _252
REMARK  107  A    between atoms: _252  and  _253
REMARK  108  A    between atoms: _262  and  _264
REMARK  109  A    between atoms: _264  and  _265
REMARK  110  A    between atoms: _264  and  _267
REMARK  111  A    between atoms: _267  and  _268
REMARK  112  A    between atoms: _273  and  _275
REMARK  113  A    between atoms: _275  and  _276
REMARK  114  A    between atoms: _275  and  _278
REMARK  115  A    between atoms: _278  and  _279
REMARK  116  A    between atoms: _279  and  _280
REMARK  117  A    between atoms: _280  and  _281
REMARK  118  A    between atoms: _290  and  _292
REMARK  119  A    between atoms: _292  and  _293
REMARK  120  A    between atoms: _292  and  _295
REMARK  121  A    between atoms: _295  and  _296
REMARK  122  A    between atoms: _302  and  _304
REMARK  123  A    between atoms: _304  and  _305
REMARK  124  A    between atoms: _304  and  _307
REMARK  125  A    between atoms: _307  and  _308
REMARK  126  A    between atoms: _311  and  _313
REMARK  127  A    between atoms: _313  and  _314
REMARK  128  A    between atoms: _313  and  _316
REMARK  129  A    between atoms: _316  and  _317
REMARK  130  A    between atoms: _320  and  _322
REMARK  131  A    between atoms: _322  and  _323
REMARK  132  A    between atoms: _322  and  _325
REMARK  133  A    between atoms: _325  and  _326
REMARK  134  A    between atoms: _329  and  _331
REMARK  135  A    between atoms: _331  and  _332
REMARK  136  A    between atoms: _331  and  _334
REMARK  137  A    between atoms: _334  and  _335
REMARK  138  A    between atoms: _338  and  _340
REMARK  139  A    between atoms: _340  and  _341
REMARK  140  A    between atoms: _343  and  _345
REMARK  141  A    between atoms: _345  and  _346
REMARK  142  A    between atoms: _349  and  _351
REMARK  143  A    between atoms: _351  and  _352
REMARK  144  A    between atoms: _351  and  _354
REMARK  145  A    between atoms: _354  and  _355
REMARK  146  A    between atoms: _358  and  _360
REMARK  147  A    between atoms: _360  and  _361
REMARK  148  A    between atoms: _360  and  _363
REMARK  149  A    between atoms: _363  and  _364
REMARK  150  A    between atoms: _367  and  _369
REMARK  151  A    between atoms: _369  and  _370
REMARK  152  A    between atoms: _369  and  _372
REMARK  153  A    between atoms: _372  and  _373
REMARK  154  A    between atoms: _376  and  _378
REMARK  155  A    between atoms: _378  and  _379
REMARK  156  A    between atoms: _378  and  _381
REMARK  157  A    between atoms: _381  and  _382
REMARK  158  A    between atoms: _385  and  _387
REMARK  159  A    between atoms: _387  and  _388
REMARK  160  A    between atoms: _387  and  _390
REMARK  161  A    between atoms: _390  and  _391
REMARK  162  A    between atoms: _391  and  _392
REMARK  163  A    between atoms: _395  and  _397
REMARK  164  A    between atoms: _397  and  _398
REMARK  165  A    between atoms: _397  and  _400
REMARK  166  A    between atoms: _400  and  _401
REMARK  167  A    between atoms: _401  and  _402
REMARK  168  A    between atoms: _402  and  _403
REMARK  169  A    between atoms: _403  and  _404
REMARK  170  A    between atoms: _408  and  _410
REMARK  171  A    between atoms: _410  and  _411
REMARK  172  A    between atoms: _410  and  _413
REMARK  173  A    between atoms: _416  and  _418
REMARK  174  A    between atoms: _418  and  _419
REMARK  175  A    between atoms: _418  and  _421
REMARK  176  A    between atoms: _424  and  _426
REMARK  177  A    between atoms: _426  and  _427
REMARK  178  A    between atoms: _429  and  _431
REMARK  179  A    between atoms: _431  and  _432
REMARK  180  A    between atoms: _434  and  _436
REMARK  181  A    between atoms: _436  and  _437
REMARK  182  A    between atoms: _436  and  _439
REMARK  183  A    between atoms: _439  and  _440
REMARK  184  A    between atoms: _443  and  _445
REMARK  185  A    between atoms: _445  and  _446
REMARK  186  A    between atoms: _448  and  _450
REMARK  187  A    between atoms: _450  and  _451
REMARK  188  A    between atoms: _453  and  _455
REMARK  189  A    between atoms: _455  and  _456
REMARK  190  A    between atoms: _455  and  _458
REMARK  191  A    between atoms: _458  and  _459
REMARK  192  A    between atoms: _459  and  _460
REMARK  193  A    between atoms: _462  and  _464
REMARK  194  A    between atoms: _464  and  _465
REMARK  195  A    between atoms: _464  and  _467
REMARK  196  A    between atoms: _470  and  _472
REMARK  197  A    between atoms: _472  and  _473
REMARK  198  A    between atoms: _472  and  _475
REMARK  199  A    between atoms: _475  and  _476
REMARK  200  A    between atoms: _480  and  _481
REMARK  201  A    between atoms: _486  and  _488
REMARK  202  A    between atoms: _488  and  _489
REMARK  203  A    between atoms: _488  and  _491
REMARK  204  A    between atoms: _491  and  _492
REMARK  205  A    between atoms: _496  and  _497
REMARK  206  A    between atoms: _502  and  _504
REMARK  207  A    between atoms: _504  and  _505
REMARK  208  A    between atoms: _508  and  _510
REMARK  209  A    between atoms: _510  and  _511
REMARK  210  A    between atoms: _510  and  _513
REMARK  211  A    between atoms: _513  and  _514
REMARK  212  A    between atoms: _519  and  _521
REMARK  213  A    between atoms: _521  and  _522
REMARK  214  A    between atoms: _521  and  _524
REMARK  215  A    between atoms: _524  and  _525
REMARK  216  A    between atoms: _528  and  _530
REMARK  217  A    between atoms: _530  and  _531
REMARK  218  A    between atoms: _530  and  _533
REMARK  219  A    between atoms: _533  and  _534
REMARK  220  A    between atoms: _537  and  _539
REMARK  221  A    between atoms: _539  and  _540
REMARK  222  A    between atoms: _542  and  _544
REMARK  223  A    between atoms: _544  and  _545
REMARK  224  A    between atoms: _544  and  _547
REMARK  225  A    between atoms: _547  and  _548
REMARK  226  A    between atoms: _548  and  _549
REMARK  227  A    between atoms: _549  and  _550
REMARK  228  A    between atoms: _559  and  _561
REMARK  229  A    between atoms: _561  and  _562
REMARK  230  A    between atoms: _561  and  _564
REMARK  231  A    between atoms: _564  and  _565
REMARK                            x       y       z     vdW  Elec       q    Type
REMARK                         _______ _______ _______ _____ _____    ______ ____
ROOT
ATOM      1  O   HOH     1     -10.158  51.661  17.059  0.00  0.00    +0.000 OA
ENDROOT
TORSDOF 0
REMARK  Name = ../refined-set-2016/4m8y/4m8y_pocket.pdb
REMARK  231 active torsions:
REMARK  status: ('A' for Active; 'I' for Inactive)
REMARK    1  A    between atoms: _1  and  _3
REMARK    2  A    between atoms: _3  and  _4
REMARK    3  A    between atoms: _3  and  _6
REMARK    4  A    between atoms: _6  and  _7
REMARK    5  A    between atoms: _7  and  _8
REMARK    6  A    between atoms: _8  and  _9
REMARK    7  A    between atoms: _18  and  _20
REMARK    8  A    between atoms: _20  and  _21
REMARK    9  A    between atoms: _20  and  _23
REMARK   10  A    between atoms: _23  and  _24
REMARK   11  A    between atoms: _27  and  _29
REMARK   12  A    between atoms: _29  and  _30
REMARK   13  A    between atoms: _29  and  _32
REMARK   14  A    between atoms: _32  and  _33
REMARK   15  A    between atoms: _36  and  _38
REMARK   16  A    between atoms: _38  and  _39
REMARK   17  A    between atoms: _38  and  _41
REMARK   18  A    between atoms: _41  and  _42
REMARK   19  A    between atoms: _45  and  _47
REMARK   20  A    between atoms: _47  and  _48
REMARK   21  A    between atoms: _47  and  _50
REMARK   22  A    between atoms: _50  and  _51
REMARK   23  A    between atoms: _54  and  _56
REMARK   24  A    between atoms: _56  and  _57
REMARK   25  A    between atoms: _59  and  _61
REMARK   26  A    between atoms: _61  and  _62
REMARK   27  A    between atoms: _65  and  _67
REMARK   28  A    between atoms: _67  and  _68
REMARK   29  A    between atoms: _67  and  _70
REMARK   30  A    between atoms: _70  and  _71
REMARK   31  A    between atoms: _74  and  _76
REMARK   32  A    between atoms: _76  and  _77
REMARK   33  A    between atoms: _76  and  _79
REMARK   34  A    between atoms: _79  and  _80
REMARK   35  A    between atoms: _83  and  _85
REMARK   36  A    between atoms: _85  and  _86
REMARK   37  A    between atoms: _85  and  _88
REMARK   38  A    between atoms: _88  and  _89
REMARK   39  A    between atoms: _92  and  _94
REMARK   40  A    between atoms: _94  and  _95
REMARK   41  A    between atoms: _94  and  _97
REMARK   42  A    between atoms: _97  and  _98
REMARK   43  A    between atoms: _101  and  _103
REMARK   44  A    between atoms: _103  and  _104
REMARK   45  A    between atoms: _103  and  _106
REMARK   46  A    between atoms: _106  and  _107
REMARK   47  A    between atoms: _107  and  _108
REMARK   48  A    between atoms: _108  and  _109
REMARK   49  A    between atoms: _109  and  _110
REMARK   50  A    between atoms: _114  and  _116
REMARK   51  A    between atoms: _116  and  _117
REMARK   52  A    between atoms: _116  and  _119
REMARK   53  A    between atoms: _122  and  _124
REMARK   54  A    between atoms: _124  and  _125
REMARK   55  A    between atoms: _124  and  _127
REMARK   56  A    between atoms: _130  and  _132
REMARK   57  A    between atoms: _132  and  _133
REMARK   58  A    between atoms: _135  and  _137
REMARK   59  A    between atoms: _137  and  _138
REMARK   60  A    between atoms: _140  and  _142
REMARK   61  A    between atoms: _142  and  _143
REMARK   62  A    between atoms: _142  and  _145
REMARK   63  A    between atoms: _145  and  _146
REMARK   64  A    between atoms: _149  and  _151
REMARK   65  A    between atoms: _151  and  _152
REMARK   66  A    between atoms: _154  and  _156
REMARK   67  A    between atoms: _156  and  _157
REMARK   68  A    between atoms: _159  and  _161
REMARK   69  A    between atoms: _161  and  _162
REMARK   70  A    between atoms: _161  and  _164
REMARK   71  A    between atoms: _164  and  _165
REMARK   72  A    between atoms: _171  and  _173
REMARK   73  A    between atoms: _173  and  _174
REMARK   74  A    between atoms: _173  and  _176
REMARK   75  A    between atoms: _176  and  _177
REMARK   76  A    between atoms: _177  and  _178
REMARK   77  A    between atoms: _180  and  _182
REMARK   78  A    between atoms: _182  and  _183
REMARK   79  A    between atoms: _182  and  _185
REMARK   80  A    between atoms: _185  and  _186
REMARK   81  A    between atoms: _189  and  _191
REMARK   82  A    between atoms: _191  and  _192
REMARK   83  A    between atoms: _191  and  _194
REMARK   84  A    between atoms: _194  and  _195
REMARK   85  A    between atoms: _199  and  _200
REMARK   86  A    between atoms: _205  and  _207
REMARK   87  A    between atoms: _207  and  _208
REMARK   88  A    between atoms: _211  and  _213
REMARK   89  A    between atoms: _213  and  _214
REMARK   90  A    between atoms: _213  and  _216
REMARK   91  A    between atoms: _216  and  _217
REMARK   92  A    between atoms: _222  and  _224
REMARK   93  A    between atoms: _224  and  _225
REMARK   94  A    between atoms: _224  and  _227
REMARK   95  A    between atoms: _227  and  _228
REMARK   96  A    between atoms: _231  and  _233
REMARK   97  A    between atoms: _233  and  _234
REMARK   98  A    between atoms: _233  and  _236
REMARK   99  A    between atoms: _236  and  _237
REMARK  100  A    between atoms: _240  and  _242
REMARK  101  A    between atoms: _242  and  _243
REMARK  102  A    between atoms: _245  and  _247
REMARK  103  A    between atoms: _247  and  _248
REMARK  104  A    between atoms: _247  and  _250
REMARK  105  A    between atoms: _250  and  _251
REMARK  106  A    between atoms: _251  and  _252
REMARK  107  A    between atoms: _252  and  _253
REMARK  108  A    between atoms: _262  and  _264
REMARK  109  A    between atoms: _264  and  _265
REMARK  110  A    between atoms: _264  and  _267
REMARK  111  A    between atoms: _267  and  _268
REMARK  112  A    between atoms: _273  and  _275
REMARK  113  A    between atoms: _275  and  _276
REMARK  114  A    between atoms: _275  and  _278
REMARK  115  A    between atoms: _278  and  _279
REMARK  116  A    between atoms: _279  and  _280
REMARK  117  A    between atoms: _280  and  _281
REMARK  118  A    between atoms: _290  and  _292
REMARK  119  A    between atoms: _292  and  _293
REMARK  120  A    between atoms: _292  and  _295
REMARK  121  A    between atoms: _295  and  _296
REMARK  122  A    between atoms: _302  and  _304
REMARK  123  A    between atoms: _304  and  _305
REMARK  124  A    between atoms: _304  and  _307
REMARK  125  A    between atoms: _307  and  _308
REMARK  126  A    between atoms: _311  and  _313
REMARK  127  A    between atoms: _313  and  _314
REMARK  128  A    between atoms: _313  and  _316
REMARK  129  A    between atoms: _316  and  _317
REMARK  130  A    between atoms: _320  and  _322
REMARK  131  A    between atoms: _322  and  _323
REMARK  132  A    between atoms: _322  and  _325
REMARK  133  A    between atoms: _325  and  _326
REMARK  134  A    between atoms: _329  and  _331
REMARK  135  A    between atoms: _331  and  _332
REMARK  136  A    between atoms: _331  and  _334
REMARK  137  A    between atoms: _334  and  _335
REMARK  138  A    between atoms: _338  and  _340
REMARK  139  A    between atoms: _340  and  _341
REMARK  140  A    between atoms: _343  and  _345
REMARK  141  A    between atoms: _345  and  _346
REMARK  142  A    between atoms: _349  and  _351
REMARK  143  A    between atoms: _351  and  _352
REMARK  144  A    between atoms: _351  and  _354
REMARK  145  A    between atoms: _354  and  _355
REMARK  146  A    between atoms: _358  and  _360
REMARK  147  A    between atoms: _360  and  _361
REMARK  148  A    between atoms: _360  and  _363
REMARK  149  A    between atoms: _363  and  _364
REMARK  150  A    between atoms: _367  and  _369
REMARK  151  A    between atoms: _369  and  _370
REMARK  152  A    between atoms: _369  and  _372
REMARK  153  A    between atoms: _372  and  _373
REMARK  154  A    between atoms: _376  and  _378
REMARK  155  A    between atoms: _378  and  _379
REMARK  156  A    between atoms: _378  and  _381
REMARK  157  A    between atoms: _381  and  _382
REMARK  158  A    between atoms: _385  and  _387
REMARK  159  A    between atoms: _387  and  _388
REMARK  160  A    between atoms: _387  and  _390
REMARK  161  A    between atoms: _390  and  _391
REMARK  162  A    between atoms: _391  and  _392
REMARK  163  A    between atoms: _395  and  _397
REMARK  164  A    between atoms: _397  and  _398
REMARK  165  A    between atoms: _397  and  _400
REMARK  166  A    between atoms: _400  and  _401
REMARK  167  A    between atoms: _401  and  _402
REMARK  168  A    between atoms: _402  and  _403
REMARK  169  A    between atoms: _403  and  _404
REMARK  170  A    between atoms: _408  and  _410
REMARK  171  A    between atoms: _410  and  _411
REMARK  172  A    between atoms: _410  and  _413
REMARK  173  A    between atoms: _416  and  _418
REMARK  174  A    between atoms: _418  and  _419
REMARK  175  A    between atoms: _418  and  _421
REMARK  176  A    between atoms: _424  and  _426
REMARK  177  A    between atoms: _426  and  _427
REMARK  178  A    between atoms: _429  and  _431
REMARK  179  A    between atoms: _431  and  _432
REMARK  180  A    between atoms: _434  and  _436
REMARK  181  A    between atoms: _436  and  _437
REMARK  182  A    between atoms: _436  and  _439
REMARK  183  A    between atoms: _439  and  _440
REMARK  184  A    between atoms: _443  and  _445
REMARK  185  A    between atoms: _445  and  _446
REMARK  186  A    between atoms: _448  and  _450
REMARK  187  A    between atoms: _450  and  _451
REMARK  188  A    between atoms: _453  and  _455
REMARK  189  A    between atoms: _455  and  _456
REMARK  190  A    between atoms: _455  and  _458
REMARK  191  A    between atoms: _458  and  _459
REMARK  192  A    between atoms: _459  and  _460
REMARK  193  A    between atoms: _462  and  _464
REMARK  194  A    between atoms: _464  and  _465
REMARK  195  A    between atoms: _464  and  _467
REMARK  196  A    between atoms: _470  and  _472
REMARK  197  A    between atoms: _472  and  _473
REMARK  198  A    between atoms: _472  and  _475
REMARK  199  A    between atoms: _475  and  _476
REMARK  200  A    between atoms: _480  and  _481
REMARK  201  A    between atoms: _486  and  _488
REMARK  202  A    between atoms: _488  and  _489
REMARK  203  A    between atoms: _488  and  _491
REMARK  204  A    between atoms: _491  and  _492
REMARK  205  A    between atoms: _496  and  _497
REMARK  206  A    between atoms: _502  and  _504
REMARK  207  A    between atoms: _504  and  _505
REMARK  208  A    between atoms: _508  and  _510
REMARK  209  A    between atoms: _510  and  _511
REMARK  210  A    between atoms: _510  and  _513
REMARK  211  A    between atoms: _513  and  _514
REMARK  212  A    between atoms: _519  and  _521
REMARK  213  A    between atoms: _521  and  _522
REMARK  214  A    between atoms: _521  and  _524
REMARK  215  A    between atoms: _524  and  _525
REMARK  216  A    between atoms: _528  and  _530
REMARK  217  A    between atoms: _530  and  _531
REMARK  218  A    between atoms: _530  and  _533
REMARK  219  A    between atoms: _533  and  _534
REMARK  220  A    between atoms: _537  and  _539
REMARK  221  A    between atoms: _539  and  _540
REMARK  222  A    between atoms: _542  and  _544
REMARK  223  A    between atoms: _544  and  _545
REMARK  224  A    between atoms: _544  and  _547
REMARK  225  A    between atoms: _547  and  _548
REMARK  226  A    between atoms: _548  and  _549
REMARK  227  A    between atoms: _549  and  _550
REMARK  228  A    between atoms: _559  and  _561
REMARK  229  A    between atoms: _561  and  _562
REMARK  230  A    between atoms: _561  and  _564
REMARK  231  A    between atoms: _564  and  _565
REMARK                            x       y       z     vdW  Elec       q    Type
REMARK                         _______ _______ _______ _____ _____    ______ ____
ROOT
ATOM      1  O   HOH     1     -16.755  40.386   4.993  0.00  0.00    +0.000 OA
ENDROOT
TORSDOF 0
REMARK  Name = ../refined-set-2016/4m8y/4m8y_pocket.pdb
REMARK  231 active torsions:
REMARK  status: ('A' for Active; 'I' for Inactive)
REMARK    1  A    between atoms: _1  and  _3
REMARK    2  A    between atoms: _3  and  _4
REMARK    3  A    between atoms: _3  and  _6
REMARK    4  A    between atoms: _6  and  _7
REMARK    5  A    between atoms: _7  and  _8
REMARK    6  A    between atoms: _8  and  _9
REMARK    7  A    between atoms: _18  and  _20
REMARK    8  A    between atoms: _20  and  _21
REMARK    9  A    between atoms: _20  and  _23
REMARK   10  A    between atoms: _23  and  _24
REMARK   11  A    between atoms: _27  and  _29
REMARK   12  A    between atoms: _29  and  _30
REMARK   13  A    between atoms: _29  and  _32
REMARK   14  A    between atoms: _32  and  _33
REMARK   15  A    between atoms: _36  and  _38
REMARK   16  A    between atoms: _38  and  _39
REMARK   17  A    between atoms: _38  and  _41
REMARK   18  A    between atoms: _41  and  _42
REMARK   19  A    between atoms: _45  and  _47
REMARK   20  A    between atoms: _47  and  _48
REMARK   21  A    between atoms: _47  and  _50
REMARK   22  A    between atoms: _50  and  _51
REMARK   23  A    between atoms: _54  and  _56
REMARK   24  A    between atoms: _56  and  _57
REMARK   25  A    between atoms: _59  and  _61
REMARK   26  A    between atoms: _61  and  _62
REMARK   27  A    between atoms: _65  and  _67
REMARK   28  A    between atoms: _67  and  _68
REMARK   29  A    between atoms: _67  and  _70
REMARK   30  A    between atoms: _70  and  _71
REMARK   31  A    between atoms: _74  and  _76
REMARK   32  A    between atoms: _76  and  _77
REMARK   33  A    between atoms: _76  and  _79
REMARK   34  A    between atoms: _79  and  _80
REMARK   35  A    between atoms: _83  and  _85
REMARK   36  A    between atoms: _85  and  _86
REMARK   37  A    between atoms: _85  and  _88
REMARK   38  A    between atoms: _88  and  _89
REMARK   39  A    between atoms: _92  and  _94
REMARK   40  A    between atoms: _94  and  _95
REMARK   41  A    between atoms: _94  and  _97
REMARK   42  A    between atoms: _97  and  _98
REMARK   43  A    between atoms: _101  and  _103
REMARK   44  A    between atoms: _103  and  _104
REMARK   45  A    between atoms: _103  and  _106
REMARK   46  A    between atoms: _106  and  _107
REMARK   47  A    between atoms: _107  and  _108
REMARK   48  A    between atoms: _108  and  _109
REMARK   49  A    between atoms: _109  and  _110
REMARK   50  A    between atoms: _114  and  _116
REMARK   51  A    between atoms: _116  and  _117
REMARK   52  A    between atoms: _116  and  _119
REMARK   53  A    between atoms: _122  and  _124
REMARK   54  A    between atoms: _124  and  _125
REMARK   55  A    between atoms: _124  and  _127
REMARK   56  A    between atoms: _130  and  _132
REMARK   57  A    between atoms: _132  and  _133
REMARK   58  A    between atoms: _135  and  _137
REMARK   59  A    between atoms: _137  and  _138
REMARK   60  A    between atoms: _140  and  _142
REMARK   61  A    between atoms: _142  and  _143
REMARK   62  A    between atoms: _142  and  _145
REMARK   63  A    between atoms: _145  and  _146
REMARK   64  A    between atoms: _149  and  _151
REMARK   65  A    between atoms: _151  and  _152
REMARK   66  A    between atoms: _154  and  _156
REMARK   67  A    between atoms: _156  and  _157
REMARK   68  A    between atoms: _159  and  _161
REMARK   69  A    between atoms: _161  and  _162
REMARK   70  A    between atoms: _161  and  _164
REMARK   71  A    between atoms: _164  and  _165
REMARK   72  A    between atoms: _171  and  _173
REMARK   73  A    between atoms: _173  and  _174
REMARK   74  A    between atoms: _173  and  _176
REMARK   75  A    between atoms: _176  and  _177
REMARK   76  A    between atoms: _177  and  _178
REMARK   77  A    between atoms: _180  and  _182
REMARK   78  A    between atoms: _182  and  _183
REMARK   79  A    between atoms: _182  and  _185
REMARK   80  A    between atoms: _185  and  _186
REMARK   81  A    between atoms: _189  and  _191
REMARK   82  A    between atoms: _191  and  _192
REMARK   83  A    between atoms: _191  and  _194
REMARK   84  A    between atoms: _194  and  _195
REMARK   85  A    between atoms: _199  and  _200
REMARK   86  A    between atoms: _205  and  _207
REMARK   87  A    between atoms: _207  and  _208
REMARK   88  A    between atoms: _211  and  _213
REMARK   89  A    between atoms: _213  and  _214
REMARK   90  A    between atoms: _213  and  _216
REMARK   91  A    between atoms: _216  and  _217
REMARK   92  A    between atoms: _222  and  _224
REMARK   93  A    between atoms: _224  and  _225
REMARK   94  A    between atoms: _224  and  _227
REMARK   95  A    between atoms: _227  and  _228
REMARK   96  A    between atoms: _231  and  _233
REMARK   97  A    between atoms: _233  and  _234
REMARK   98  A    between atoms: _233  and  _236
REMARK   99  A    between atoms: _236  and  _237
REMARK  100  A    between atoms: _240  and  _242
REMARK  101  A    between atoms: _242  and  _243
REMARK  102  A    between atoms: _245  and  _247
REMARK  103  A    between atoms: _247  and  _248
REMARK  104  A    between atoms: _247  and  _250
REMARK  105  A    between atoms: _250  and  _251
REMARK  106  A    between atoms: _251  and  _252
REMARK  107  A    between atoms: _252  and  _253
REMARK  108  A    between atoms: _262  and  _264
REMARK  109  A    between atoms: _264  and  _265
REMARK  110  A    between atoms: _264  and  _267
REMARK  111  A    between atoms: _267  and  _268
REMARK  112  A    between atoms: _273  and  _275
REMARK  113  A    between atoms: _275  and  _276
REMARK  114  A    between atoms: _275  and  _278
REMARK  115  A    between atoms: _278  and  _279
REMARK  116  A    between atoms: _279  and  _280
REMARK  117  A    between atoms: _280  and  _281
REMARK  118  A    between atoms: _290  and  _292
REMARK  119  A    between atoms: _292  and  _293
REMARK  120  A    between atoms: _292  and  _295
REMARK  121  A    between atoms: _295  and  _296
REMARK  122  A    between atoms: _302  and  _304
REMARK  123  A    between atoms: _304  and  _305
REMARK  124  A    between atoms: _304  and  _307
REMARK  125  A    between atoms: _307  and  _308
REMARK  126  A    between atoms: _311  and  _313
REMARK  127  A    between atoms: _313  and  _314
REMARK  128  A    between atoms: _313  and  _316
REMARK  129  A    between atoms: _316  and  _317
REMARK  130  A    between atoms: _320  and  _322
REMARK  131  A    between atoms: _322  and  _323
REMARK  132  A    between atoms: _322  and  _325
REMARK  133  A    between atoms: _325  and  _326
REMARK  134  A    between atoms: _329  and  _331
REMARK  135  A    between atoms: _331  and  _332
REMARK  136  A    between atoms: _331  and  _334
REMARK  137  A    between atoms: _334  and  _335
REMARK  138  A    between atoms: _338  and  _340
REMARK  139  A    between atoms: _340  and  _341
REMARK  140  A    between atoms: _343  and  _345
REMARK  141  A    between atoms: _345  and  _346
REMARK  142  A    between atoms: _349  and  _351
REMARK  143  A    between atoms: _351  and  _352
REMARK  144  A    between atoms: _351  and  _354
REMARK  145  A    between atoms: _354  and  _355
REMARK  146  A    between atoms: _358  and  _360
REMARK  147  A    between atoms: _360  and  _361
REMARK  148  A    between atoms: _360  and  _363
REMARK  149  A    between atoms: _363  and  _364
REMARK  150  A    between atoms: _367  and  _369
REMARK  151  A    between atoms: _369  and  _370
REMARK  152  A    between atoms: _369  and  _372
REMARK  153  A    between atoms: _372  and  _373
REMARK  154  A    between atoms: _376  and  _378
REMARK  155  A    between atoms: _378  and  _379
REMARK  156  A    between atoms: _378  and  _381
REMARK  157  A    between atoms: _381  and  _382
REMARK  158  A    between atoms: _385  and  _387
REMARK  159  A    between atoms: _387  and  _388
REMARK  160  A    between atoms: _387  and  _390
REMARK  161  A    between atoms: _390  and  _391
REMARK  162  A    between atoms: _391  and  _392
REMARK  163  A    between atoms: _395  and  _397
REMARK  164  A    between atoms: _397  and  _398
REMARK  165  A    between atoms: _397  and  _400
REMARK  166  A    between atoms: _400  and  _401
REMARK  167  A    between atoms: _401  and  _402
REMARK  168  A    between atoms: _402  and  _403
REMARK  169  A    between atoms: _403  and  _404
REMARK  170  A    between atoms: _408  and  _410
REMARK  171  A    between atoms: _410  and  _411
REMARK  172  A    between atoms: _410  and  _413
REMARK  173  A    between atoms: _416  and  _418
REMARK  174  A    between atoms: _418  and  _419
REMARK  175  A    between atoms: _418  and  _421
REMARK  176  A    between atoms: _424  and  _426
REMARK  177  A    between atoms: _426  and  _427
REMARK  178  A    between atoms: _429  and  _431
REMARK  179  A    between atoms: _431  and  _432
REMARK  180  A    between atoms: _434  and  _436
REMARK  181  A    between atoms: _436  and  _437
REMARK  182  A    between atoms: _436  and  _439
REMARK  183  A    between atoms: _439  and  _440
REMARK  184  A    between atoms: _443  and  _445
REMARK  185  A    between atoms: _445  and  _446
REMARK  186  A    between atoms: _448  and  _450
REMARK  187  A    between atoms: _450  and  _451
REMARK  188  A    between atoms: _453  and  _455
REMARK  189  A    between atoms: _455  and  _456
REMARK  190  A    between atoms: _455  and  _458
REMARK  191  A    between atoms: _458  and  _459
REMARK  192  A    between atoms: _459  and  _460
REMARK  193  A    between atoms: _462  and  _464
REMARK  194  A    between atoms: _464  and  _465
REMARK  195  A    between atoms: _464  and  _467
REMARK  196  A    between atoms: _470  and  _472
REMARK  197  A    between atoms: _472  and  _473
REMARK  198  A    between atoms: _472  and  _475
REMARK  199  A    between atoms: _475  and  _476
REMARK  200  A    between atoms: _480  and  _481
REMARK  201  A    between atoms: _486  and  _488
REMARK  202  A    between atoms: _488  and  _489
REMARK  203  A    between atoms: _488  and  _491
REMARK  204  A    between atoms: _491  and  _492
REMARK  205  A    between atoms: _496  and  _497
REMARK  206  A    between atoms: _502  and  _504
REMARK  207  A    between atoms: _504  and  _505
REMARK  208  A    between atoms: _508  and  _510
REMARK  209  A    between atoms: _510  and  _511
REMARK  210  A    between atoms: _510  and  _513
REMARK  211  A    between atoms: _513  and  _514
REMARK  212  A    between atoms: _519  and  _521
REMARK  213  A    between atoms: _521  and  _522
REMARK  214  A    between atoms: _521  and  _524
REMARK  215  A    between atoms: _524  and  _525
REMARK  216  A    between atoms: _528  and  _530
REMARK  217  A    between atoms: _530  and  _531
REMARK  218  A    between atoms: _530  and  _533
REMARK  219  A    between atoms: _533  and  _534
REMARK  220  A    between atoms: _537  and  _539
REMARK  221  A    between atoms: _539  and  _540
REMARK  222  A    between atoms: _542  and  _544
REMARK  223  A    between atoms: _544  and  _545
REMARK  224  A    between atoms: _544  and  _547
REMARK  225  A    between atoms: _547  and  _548
REMARK  226  A    between atoms: _548  and  _549
REMARK  227  A    between atoms: _549  and  _550
REMARK  228  A    between atoms: _559  and  _561
REMARK  229  A    between atoms: _561  and  _562
REMARK  230  A    between atoms: _561  and  _564
REMARK  231  A    between atoms: _564  and  _565
REMARK                            x       y       z     vdW  Elec       q    Type
REMARK                         _______ _______ _______ _____ _____    ______ ____
ROOT
ATOM      1  O   HOH     1      -6.330  58.727   8.651  0.00  0.00    +0.000 OA
ENDROOT
TORSDOF 0
REMARK  Name = ../refined-set-2016/4m8y/4m8y_pocket.pdb
REMARK  231 active torsions:
REMARK  status: ('A' for Active; 'I' for Inactive)
REMARK    1  A    between atoms: _1  and  _3
REMARK    2  A    between atoms: _3  and  _4
REMARK    3  A    between atoms: _3  and  _6
REMARK    4  A    between atoms: _6  and  _7
REMARK    5  A    between atoms: _7  and  _8
REMARK    6  A    between atoms: _8  and  _9
REMARK    7  A    between atoms: _18  and  _20
REMARK    8  A    between atoms: _20  and  _21
REMARK    9  A    between atoms: _20  and  _23
REMARK   10  A    between atoms: _23  and  _24
REMARK   11  A    between atoms: _27  and  _29
REMARK   12  A    between atoms: _29  and  _30
REMARK   13  A    between atoms: _29  and  _32
REMARK   14  A    between atoms: _32  and  _33
REMARK   15  A    between atoms: _36  and  _38
REMARK   16  A    between atoms: _38  and  _39
REMARK   17  A    between atoms: _38  and  _41
REMARK   18  A    between atoms: _41  and  _42
REMARK   19  A    between atoms: _45  and  _47
REMARK   20  A    between atoms: _47  and  _48
REMARK   21  A    between atoms: _47  and  _50
REMARK   22  A    between atoms: _50  and  _51
REMARK   23  A    between atoms: _54  and  _56
REMARK   24  A    between atoms: _56  and  _57
REMARK   25  A    between atoms: _59  and  _61
REMARK   26  A    between atoms: _61  and  _62
REMARK   27  A    between atoms: _65  and  _67
REMARK   28  A    between atoms: _67  and  _68
REMARK   29  A    between atoms: _67  and  _70
REMARK   30  A    between atoms: _70  and  _71
REMARK   31  A    between atoms: _74  and  _76
REMARK   32  A    between atoms: _76  and  _77
REMARK   33  A    between atoms: _76  and  _79
REMARK   34  A    between atoms: _79  and  _80
REMARK   35  A    between atoms: _83  and  _85
REMARK   36  A    between atoms: _85  and  _86
REMARK   37  A    between atoms: _85  and  _88
REMARK   38  A    between atoms: _88  and  _89
REMARK   39  A    between atoms: _92  and  _94
REMARK   40  A    between atoms: _94  and  _95
REMARK   41  A    between atoms: _94  and  _97
REMARK   42  A    between atoms: _97  and  _98
REMARK   43  A    between atoms: _101  and  _103
REMARK   44  A    between atoms: _103  and  _104
REMARK   45  A    between atoms: _103  and  _106
REMARK   46  A    between atoms: _106  and  _107
REMARK   47  A    between atoms: _107  and  _108
REMARK   48  A    between atoms: _108  and  _109
REMARK   49  A    between atoms: _109  and  _110
REMARK   50  A    between atoms: _114  and  _116
REMARK   51  A    between atoms: _116  and  _117
REMARK   52  A    between atoms: _116  and  _119
REMARK   53  A    between atoms: _122  and  _124
REMARK   54  A    between atoms: _124  and  _125
REMARK   55  A    between atoms: _124  and  _127
REMARK   56  A    between atoms: _130  and  _132
REMARK   57  A    between atoms: _132  and  _133
REMARK   58  A    between atoms: _135  and  _137
REMARK   59  A    between atoms: _137  and  _138
REMARK   60  A    between atoms: _140  and  _142
REMARK   61  A    between atoms: _142  and  _143
REMARK   62  A    between atoms: _142  and  _145
REMARK   63  A    between atoms: _145  and  _146
REMARK   64  A    between atoms: _149  and  _151
REMARK   65  A    between atoms: _151  and  _152
REMARK   66  A    between atoms: _154  and  _156
REMARK   67  A    between atoms: _156  and  _157
REMARK   68  A    between atoms: _159  and  _161
REMARK   69  A    between atoms: _161  and  _162
REMARK   70  A    between atoms: _161  and  _164
REMARK   71  A    between atoms: _164  and  _165
REMARK   72  A    between atoms: _171  and  _173
REMARK   73  A    between atoms: _173  and  _174
REMARK   74  A    between atoms: _173  and  _176
REMARK   75  A    between atoms: _176  and  _177
REMARK   76  A    between atoms: _177  and  _178
REMARK   77  A    between atoms: _180  and  _182
REMARK   78  A    between atoms: _182  and  _183
REMARK   79  A    between atoms: _182  and  _185
REMARK   80  A    between atoms: _185  and  _186
REMARK   81  A    between atoms: _189  and  _191
REMARK   82  A    between atoms: _191  and  _192
REMARK   83  A    between atoms: _191  and  _194
REMARK   84  A    between atoms: _194  and  _195
REMARK   85  A    between atoms: _199  and  _200
REMARK   86  A    between atoms: _205  and  _207
REMARK   87  A    between atoms: _207  and  _208
REMARK   88  A    between atoms: _211  and  _213
REMARK   89  A    between atoms: _213  and  _214
REMARK   90  A    between atoms: _213  and  _216
REMARK   91  A    between atoms: _216  and  _217
REMARK   92  A    between atoms: _222  and  _224
REMARK   93  A    between atoms: _224  and  _225
REMARK   94  A    between atoms: _224  and  _227
REMARK   95  A    between atoms: _227  and  _228
REMARK   96  A    between atoms: _231  and  _233
REMARK   97  A    between atoms: _233  and  _234
REMARK   98  A    between atoms: _233  and  _236
REMARK   99  A    between atoms: _236  and  _237
REMARK  100  A    between atoms: _240  and  _242
REMARK  101  A    between atoms: _242  and  _243
REMARK  102  A    between atoms: _245  and  _247
REMARK  103  A    between atoms: _247  and  _248
REMARK  104  A    between atoms: _247  and  _250
REMARK  105  A    between atoms: _250  and  _251
REMARK  106  A    between atoms: _251  and  _252
REMARK  107  A    between atoms: _252  and  _253
REMARK  108  A    between atoms: _262  and  _264
REMARK  109  A    between atoms: _264  and  _265
REMARK  110  A    between atoms: _264  and  _267
REMARK  111  A    between atoms: _267  and  _268
REMARK  112  A    between atoms: _273  and  _275
REMARK  113  A    between atoms: _275  and  _276
REMARK  114  A    between atoms: _275  and  _278
REMARK  115  A    between atoms: _278  and  _279
REMARK  116  A    between atoms: _279  and  _280
REMARK  117  A    between atoms: _280  and  _281
REMARK  118  A    between atoms: _290  and  _292
REMARK  119  A    between atoms: _292  and  _293
REMARK  120  A    between atoms: _292  and  _295
REMARK  121  A    between atoms: _295  and  _296
REMARK  122  A    between atoms: _302  and  _304
REMARK  123  A    between atoms: _304  and  _305
REMARK  124  A    between atoms: _304  and  _307
REMARK  125  A    between atoms: _307  and  _308
REMARK  126  A    between atoms: _311  and  _313
REMARK  127  A    between atoms: _313  and  _314
REMARK  128  A    between atoms: _313  and  _316
REMARK  129  A    between atoms: _316  and  _317
REMARK  130  A    between atoms: _320  and  _322
REMARK  131  A    between atoms: _322  and  _323
REMARK  132  A    between atoms: _322  and  _325
REMARK  133  A    between atoms: _325  and  _326
REMARK  134  A    between atoms: _329  and  _331
REMARK  135  A    between atoms: _331  and  _332
REMARK  136  A    between atoms: _331  and  _334
REMARK  137  A    between atoms: _334  and  _335
REMARK  138  A    between atoms: _338  and  _340
REMARK  139  A    between atoms: _340  and  _341
REMARK  140  A    between atoms: _343  and  _345
REMARK  141  A    between atoms: _345  and  _346
REMARK  142  A    between atoms: _349  and  _351
REMARK  143  A    between atoms: _351  and  _352
REMARK  144  A    between atoms: _351  and  _354
REMARK  145  A    between atoms: _354  and  _355
REMARK  146  A    between atoms: _358  and  _360
REMARK  147  A    between atoms: _360  and  _361
REMARK  148  A    between atoms: _360  and  _363
REMARK  149  A    between atoms: _363  and  _364
REMARK  150  A    between atoms: _367  and  _369
REMARK  151  A    between atoms: _369  and  _370
REMARK  152  A    between atoms: _369  and  _372
REMARK  153  A    between atoms: _372  and  _373
REMARK  154  A    between atoms: _376  and  _378
REMARK  155  A    between atoms: _378  and  _379
REMARK  156  A    between atoms: _378  and  _381
REMARK  157  A    between atoms: _381  and  _382
REMARK  158  A    between atoms: _385  and  _387
REMARK  159  A    between atoms: _387  and  _388
REMARK  160  A    between atoms: _387  and  _390
REMARK  161  A    between atoms: _390  and  _391
REMARK  162  A    between atoms: _391  and  _392
REMARK  163  A    between atoms: _395  and  _397
REMARK  164  A    between atoms: _397  and  _398
REMARK  165  A    between atoms: _397  and  _400
REMARK  166  A    between atoms: _400  and  _401
REMARK  167  A    between atoms: _401  and  _402
REMARK  168  A    between atoms: _402  and  _403
REMARK  169  A    between atoms: _403  and  _404
REMARK  170  A    between atoms: _408  and  _410
REMARK  171  A    between atoms: _410  and  _411
REMARK  172  A    between atoms: _410  and  _413
REMARK  173  A    between atoms: _416  and  _418
REMARK  174  A    between atoms: _418  and  _419
REMARK  175  A    between atoms: _418  and  _421
REMARK  176  A    between atoms: _424  and  _426
REMARK  177  A    between atoms: _426  and  _427
REMARK  178  A    between atoms: _429  and  _431
REMARK  179  A    between atoms: _431  and  _432
REMARK  180  A    between atoms: _434  and  _436
REMARK  181  A    between atoms: _436  and  _437
REMARK  182  A    between atoms: _436  and  _439
REMARK  183  A    between atoms: _439  and  _440
REMARK  184  A    between atoms: _443  and  _445
REMARK  185  A    between atoms: _445  and  _446
REMARK  186  A    between atoms: _448  and  _450
REMARK  187  A    between atoms: _450  and  _451
REMARK  188  A    between atoms: _453  and  _455
REMARK  189  A    between atoms: _455  and  _456
REMARK  190  A    between atoms: _455  and  _458
REMARK  191  A    between atoms: _458  and  _459
REMARK  192  A    between atoms: _459  and  _460
REMARK  193  A    between atoms: _462  and  _464
REMARK  194  A    between atoms: _464  and  _465
REMARK  195  A    between atoms: _464  and  _467
REMARK  196  A    between atoms: _470  and  _472
REMARK  197  A    between atoms: _472  and  _473
REMARK  198  A    between atoms: _472  and  _475
REMARK  199  A    between atoms: _475  and  _476
REMARK  200  A    between atoms: _480  and  _481
REMARK  201  A    between atoms: _486  and  _488
REMARK  202  A    between atoms: _488  and  _489
REMARK  203  A    between atoms: _488  and  _491
REMARK  204  A    between atoms: _491  and  _492
REMARK  205  A    between atoms: _496  and  _497
REMARK  206  A    between atoms: _502  and  _504
REMARK  207  A    between atoms: _504  and  _505
REMARK  208  A    between atoms: _508  and  _510
REMARK  209  A    between atoms: _510  and  _511
REMARK  210  A    between atoms: _510  and  _513
REMARK  211  A    between atoms: _513  and  _514
REMARK  212  A    between atoms: _519  and  _521
REMARK  213  A    between atoms: _521  and  _522
REMARK  214  A    between atoms: _521  and  _524
REMARK  215  A    between atoms: _524  and  _525
REMARK  216  A    between atoms: _528  and  _530
REMARK  217  A    between atoms: _530  and  _531
REMARK  218  A    between atoms: _530  and  _533
REMARK  219  A    between atoms: _533  and  _534
REMARK  220  A    between atoms: _537  and  _539
REMARK  221  A    between atoms: _539  and  _540
REMARK  222  A    between atoms: _542  and  _544
REMARK  223  A    between atoms: _544  and  _545
REMARK  224  A    between atoms: _544  and  _547
REMARK  225  A    between atoms: _547  and  _548
REMARK  226  A    between atoms: _548  and  _549
REMARK  227  A    between atoms: _549  and  _550
REMARK  228  A    between atoms: _559  and  _561
REMARK  229  A    between atoms: _561  and  _562
REMARK  230  A    between atoms: _561  and  _564
REMARK  231  A    between atoms: _564  and  _565
REMARK                            x       y       z     vdW  Elec       q    Type
REMARK                         _______ _______ _______ _____ _____    ______ ____
ROOT
ATOM      1  O   HOH     1     -11.212  61.051   8.037  0.00  0.00    +0.000 OA
ENDROOT
TORSDOF 0
REMARK  Name = ../refined-set-2016/4m8y/4m8y_pocket.pdb
REMARK  231 active torsions:
REMARK  status: ('A' for Active; 'I' for Inactive)
REMARK    1  A    between atoms: _1  and  _3
REMARK    2  A    between atoms: _3  and  _4
REMARK    3  A    between atoms: _3  and  _6
REMARK    4  A    between atoms: _6  and  _7
REMARK    5  A    between atoms: _7  and  _8
REMARK    6  A    between atoms: _8  and  _9
REMARK    7  A    between atoms: _18  and  _20
REMARK    8  A    between atoms: _20  and  _21
REMARK    9  A    between atoms: _20  and  _23
REMARK   10  A    between atoms: _23  and  _24
REMARK   11  A    between atoms: _27  and  _29
REMARK   12  A    between atoms: _29  and  _30
REMARK   13  A    between atoms: _29  and  _32
REMARK   14  A    between atoms: _32  and  _33
REMARK   15  A    between atoms: _36  and  _38
REMARK   16  A    between atoms: _38  and  _39
REMARK   17  A    between atoms: _38  and  _41
REMARK   18  A    between atoms: _41  and  _42
REMARK   19  A    between atoms: _45  and  _47
REMARK   20  A    between atoms: _47  and  _48
REMARK   21  A    between atoms: _47  and  _50
REMARK   22  A    between atoms: _50  and  _51
REMARK   23  A    between atoms: _54  and  _56
REMARK   24  A    between atoms: _56  and  _57
REMARK   25  A    between atoms: _59  and  _61
REMARK   26  A    between atoms: _61  and  _62
REMARK   27  A    between atoms: _65  and  _67
REMARK   28  A    between atoms: _67  and  _68
REMARK   29  A    between atoms: _67  and  _70
REMARK   30  A    between atoms: _70  and  _71
REMARK   31  A    between atoms: _74  and  _76
REMARK   32  A    between atoms: _76  and  _77
REMARK   33  A    between atoms: _76  and  _79
REMARK   34  A    between atoms: _79  and  _80
REMARK   35  A    between atoms: _83  and  _85
REMARK   36  A    between atoms: _85  and  _86
REMARK   37  A    between atoms: _85  and  _88
REMARK   38  A    between atoms: _88  and  _89
REMARK   39  A    between atoms: _92  and  _94
REMARK   40  A    between atoms: _94  and  _95
REMARK   41  A    between atoms: _94  and  _97
REMARK   42  A    between atoms: _97  and  _98
REMARK   43  A    between atoms: _101  and  _103
REMARK   44  A    between atoms: _103  and  _104
REMARK   45  A    between atoms: _103  and  _106
REMARK   46  A    between atoms: _106  and  _107
REMARK   47  A    between atoms: _107  and  _108
REMARK   48  A    between atoms: _108  and  _109
REMARK   49  A    between atoms: _109  and  _110
REMARK   50  A    between atoms: _114  and  _116
REMARK   51  A    between atoms: _116  and  _117
REMARK   52  A    between atoms: _116  and  _119
REMARK   53  A    between atoms: _122  and  _124
REMARK   54  A    between atoms: _124  and  _125
REMARK   55  A    between atoms: _124  and  _127
REMARK   56  A    between atoms: _130  and  _132
REMARK   57  A    between atoms: _132  and  _133
REMARK   58  A    between atoms: _135  and  _137
REMARK   59  A    between atoms: _137  and  _138
REMARK   60  A    between atoms: _140  and  _142
REMARK   61  A    between atoms: _142  and  _143
REMARK   62  A    between atoms: _142  and  _145
REMARK   63  A    between atoms: _145  and  _146
REMARK   64  A    between atoms: _149  and  _151
REMARK   65  A    between atoms: _151  and  _152
REMARK   66  A    between atoms: _154  and  _156
REMARK   67  A    between atoms: _156  and  _157
REMARK   68  A    between atoms: _159  and  _161
REMARK   69  A    between atoms: _161  and  _162
REMARK   70  A    between atoms: _161  and  _164
REMARK   71  A    between atoms: _164  and  _165
REMARK   72  A    between atoms: _171  and  _173
REMARK   73  A    between atoms: _173  and  _174
REMARK   74  A    between atoms: _173  and  _176
REMARK   75  A    between atoms: _176  and  _177
REMARK   76  A    between atoms: _177  and  _178
REMARK   77  A    between atoms: _180  and  _182
REMARK   78  A    between atoms: _182  and  _183
REMARK   79  A    between atoms: _182  and  _185
REMARK   80  A    between atoms: _185  and  _186
REMARK   81  A    between atoms: _189  and  _191
REMARK   82  A    between atoms: _191  and  _192
REMARK   83  A    between atoms: _191  and  _194
REMARK   84  A    between atoms: _194  and  _195
REMARK   85  A    between atoms: _199  and  _200
REMARK   86  A    between atoms: _205  and  _207
REMARK   87  A    between atoms: _207  and  _208
REMARK   88  A    between atoms: _211  and  _213
REMARK   89  A    between atoms: _213  and  _214
REMARK   90  A    between atoms: _213  and  _216
REMARK   91  A    between atoms: _216  and  _217
REMARK   92  A    between atoms: _222  and  _224
REMARK   93  A    between atoms: _224  and  _225
REMARK   94  A    between atoms: _224  and  _227
REMARK   95  A    between atoms: _227  and  _228
REMARK   96  A    between atoms: _231  and  _233
REMARK   97  A    between atoms: _233  and  _234
REMARK   98  A    between atoms: _233  and  _236
REMARK   99  A    between atoms: _236  and  _237
REMARK  100  A    between atoms: _240  and  _242
REMARK  101  A    between atoms: _242  and  _243
REMARK  102  A    between atoms: _245  and  _247
REMARK  103  A    between atoms: _247  and  _248
REMARK  104  A    between atoms: _247  and  _250
REMARK  105  A    between atoms: _250  and  _251
REMARK  106  A    between atoms: _251  and  _252
REMARK  107  A    between atoms: _252  and  _253
REMARK  108  A    between atoms: _262  and  _264
REMARK  109  A    between atoms: _264  and  _265
REMARK  110  A    between atoms: _264  and  _267
REMARK  111  A    between atoms: _267  and  _268
REMARK  112  A    between atoms: _273  and  _275
REMARK  113  A    between atoms: _275  and  _276
REMARK  114  A    between atoms: _275  and  _278
REMARK  115  A    between atoms: _278  and  _279
REMARK  116  A    between atoms: _279  and  _280
REMARK  117  A    between atoms: _280  and  _281
REMARK  118  A    between atoms: _290  and  _292
REMARK  119  A    between atoms: _292  and  _293
REMARK  120  A    between atoms: _292  and  _295
REMARK  121  A    between atoms: _295  and  _296
REMARK  122  A    between atoms: _302  and  _304
REMARK  123  A    between atoms: _304  and  _305
REMARK  124  A    between atoms: _304  and  _307
REMARK  125  A    between atoms: _307  and  _308
REMARK  126  A    between atoms: _311  and  _313
REMARK  127  A    between atoms: _313  and  _314
REMARK  128  A    between atoms: _313  and  _316
REMARK  129  A    between atoms: _316  and  _317
REMARK  130  A    between atoms: _320  and  _322
REMARK  131  A    between atoms: _322  and  _323
REMARK  132  A    between atoms: _322  and  _325
REMARK  133  A    between atoms: _325  and  _326
REMARK  134  A    between atoms: _329  and  _331
REMARK  135  A    between atoms: _331  and  _332
REMARK  136  A    between atoms: _331  and  _334
REMARK  137  A    between atoms: _334  and  _335
REMARK  138  A    between atoms: _338  and  _340
REMARK  139  A    between atoms: _340  and  _341
REMARK  140  A    between atoms: _343  and  _345
REMARK  141  A    between atoms: _345  and  _346
REMARK  142  A    between atoms: _349  and  _351
REMARK  143  A    between atoms: _351  and  _352
REMARK  144  A    between atoms: _351  and  _354
REMARK  145  A    between atoms: _354  and  _355
REMARK  146  A    between atoms: _358  and  _360
REMARK  147  A    between atoms: _360  and  _361
REMARK  148  A    between atoms: _360  and  _363
REMARK  149  A    between atoms: _363  and  _364
REMARK  150  A    between atoms: _367  and  _369
REMARK  151  A    between atoms: _369  and  _370
REMARK  152  A    between atoms: _369  and  _372
REMARK  153  A    between atoms: _372  and  _373
REMARK  154  A    between atoms: _376  and  _378
REMARK  155  A    between atoms: _378  and  _379
REMARK  156  A    between atoms: _378  and  _381
REMARK  157  A    between atoms: _381  and  _382
REMARK  158  A    between atoms: _385  and  _387
REMARK  159  A    between atoms: _387  and  _388
REMARK  160  A    between atoms: _387  and  _390
REMARK  161  A    between atoms: _390  and  _391
REMARK  162  A    between atoms: _391  and  _392
REMARK  163  A    between atoms: _395  and  _397
REMARK  164  A    between atoms: _397  and  _398
REMARK  165  A    between atoms: _397  and  _400
REMARK  166  A    between atoms: _400  and  _401
REMARK  167  A    between atoms: _401  and  _402
REMARK  168  A    between atoms: _402  and  _403
REMARK  169  A    between atoms: _403  and  _404
REMARK  170  A    between atoms: _408  and  _410
REMARK  171  A    between atoms: _410  and  _411
REMARK  172  A    between atoms: _410  and  _413
REMARK  173  A    between atoms: _416  and  _418
REMARK  174  A    between atoms: _418  and  _419
REMARK  175  A    between atoms: _418  and  _421
REMARK  176  A    between atoms: _424  and  _426
REMARK  177  A    between atoms: _426  and  _427
REMARK  178  A    between atoms: _429  and  _431
REMARK  179  A    between atoms: _431  and  _432
REMARK  180  A    between atoms: _434  and  _436
REMARK  181  A    between atoms: _436  and  _437
REMARK  182  A    between atoms: _436  and  _439
REMARK  183  A    between atoms: _439  and  _440
REMARK  184  A    between atoms: _443  and  _445
REMARK  185  A    between atoms: _445  and  _446
REMARK  186  A    between atoms: _448  and  _450
REMARK  187  A    between atoms: _450  and  _451
REMARK  188  A    between atoms: _453  and  _455
REMARK  189  A    between atoms: _455  and  _456
REMARK  190  A    between atoms: _455  and  _458
REMARK  191  A    between atoms: _458  and  _459
REMARK  192  A    between atoms: _459  and  _460
REMARK  193  A    between atoms: _462  and  _464
REMARK  194  A    between atoms: _464  and  _465
REMARK  195  A    between atoms: _464  and  _467
REMARK  196  A    between atoms: _470  and  _472
REMARK  197  A    between atoms: _472  and  _473
REMARK  198  A    between atoms: _472  and  _475
REMARK  199  A    between atoms: _475  and  _476
REMARK  200  A    between atoms: _480  and  _481
REMARK  201  A    between atoms: _486  and  _488
REMARK  202  A    between atoms: _488  and  _489
REMARK  203  A    between atoms: _488  and  _491
REMARK  204  A    between atoms: _491  and  _492
REMARK  205  A    between atoms: _496  and  _497
REMARK  206  A    between atoms: _502  and  _504
REMARK  207  A    between atoms: _504  and  _505
REMARK  208  A    between atoms: _508  and  _510
REMARK  209  A    between atoms: _510  and  _511
REMARK  210  A    between atoms: _510  and  _513
REMARK  211  A    between atoms: _513  and  _514
REMARK  212  A    between atoms: _519  and  _521
REMARK  213  A    between atoms: _521  and  _522
REMARK  214  A    between atoms: _521  and  _524
REMARK  215  A    between atoms: _524  and  _525
REMARK  216  A    between atoms: _528  and  _530
REMARK  217  A    between atoms: _530  and  _531
REMARK  218  A    between atoms: _530  and  _533
REMARK  219  A    between atoms: _533  and  _534
REMARK  220  A    between atoms: _537  and  _539
REMARK  221  A    between atoms: _539  and  _540
REMARK  222  A    between atoms: _542  and  _544
REMARK  223  A    between atoms: _544  and  _545
REMARK  224  A    between atoms: _544  and  _547
REMARK  225  A    between atoms: _547  and  _548
REMARK  226  A    between atoms: _548  and  _549
REMARK  227  A    between atoms: _549  and  _550
REMARK  228  A    between atoms: _559  and  _561
REMARK  229  A    between atoms: _561  and  _562
REMARK  230  A    between atoms: _561  and  _564
REMARK  231  A    between atoms: _564  and  _565
REMARK                            x       y       z     vdW  Elec       q    Type
REMARK                         _______ _______ _______ _____ _____    ______ ____
ROOT
ATOM      1  O   HOH     1      -9.074  59.580   8.256  0.00  0.00    +0.000 OA
ENDROOT
TORSDOF 0
REMARK  Name = ../refined-set-2016/4m8y/4m8y_pocket.pdb
REMARK  231 active torsions:
REMARK  status: ('A' for Active; 'I' for Inactive)
REMARK    1  A    between atoms: _1  and  _3
REMARK    2  A    between atoms: _3  and  _4
REMARK    3  A    between atoms: _3  and  _6
REMARK    4  A    between atoms: _6  and  _7
REMARK    5  A    between atoms: _7  and  _8
REMARK    6  A    between atoms: _8  and  _9
REMARK    7  A    between atoms: _18  and  _20
REMARK    8  A    between atoms: _20  and  _21
REMARK    9  A    between atoms: _20  and  _23
REMARK   10  A    between atoms: _23  and  _24
REMARK   11  A    between atoms: _27  and  _29
REMARK   12  A    between atoms: _29  and  _30
REMARK   13  A    between atoms: _29  and  _32
REMARK   14  A    between atoms: _32  and  _33
REMARK   15  A    between atoms: _36  and  _38
REMARK   16  A    between atoms: _38  and  _39
REMARK   17  A    between atoms: _38  and  _41
REMARK   18  A    between atoms: _41  and  _42
REMARK   19  A    between atoms: _45  and  _47
REMARK   20  A    between atoms: _47  and  _48
REMARK   21  A    between atoms: _47  and  _50
REMARK   22  A    between atoms: _50  and  _51
REMARK   23  A    between atoms: _54  and  _56
REMARK   24  A    between atoms: _56  and  _57
REMARK   25  A    between atoms: _59  and  _61
REMARK   26  A    between atoms: _61  and  _62
REMARK   27  A    between atoms: _65  and  _67
REMARK   28  A    between atoms: _67  and  _68
REMARK   29  A    between atoms: _67  and  _70
REMARK   30  A    between atoms: _70  and  _71
REMARK   31  A    between atoms: _74  and  _76
REMARK   32  A    between atoms: _76  and  _77
REMARK   33  A    between atoms: _76  and  _79
REMARK   34  A    between atoms: _79  and  _80
REMARK   35  A    between atoms: _83  and  _85
REMARK   36  A    between atoms: _85  and  _86
REMARK   37  A    between atoms: _85  and  _88
REMARK   38  A    between atoms: _88  and  _89
REMARK   39  A    between atoms: _92  and  _94
REMARK   40  A    between atoms: _94  and  _95
REMARK   41  A    between atoms: _94  and  _97
REMARK   42  A    between atoms: _97  and  _98
REMARK   43  A    between atoms: _101  and  _103
REMARK   44  A    between atoms: _103  and  _104
REMARK   45  A    between atoms: _103  and  _106
REMARK   46  A    between atoms: _106  and  _107
REMARK   47  A    between atoms: _107  and  _108
REMARK   48  A    between atoms: _108  and  _109
REMARK   49  A    between atoms: _109  and  _110
REMARK   50  A    between atoms: _114  and  _116
REMARK   51  A    between atoms: _116  and  _117
REMARK   52  A    between atoms: _116  and  _119
REMARK   53  A    between atoms: _122  and  _124
REMARK   54  A    between atoms: _124  and  _125
REMARK   55  A    between atoms: _124  and  _127
REMARK   56  A    between atoms: _130  and  _132
REMARK   57  A    between atoms: _132  and  _133
REMARK   58  A    between atoms: _135  and  _137
REMARK   59  A    between atoms: _137  and  _138
REMARK   60  A    between atoms: _140  and  _142
REMARK   61  A    between atoms: _142  and  _143
REMARK   62  A    between atoms: _142  and  _145
REMARK   63  A    between atoms: _145  and  _146
REMARK   64  A    between atoms: _149  and  _151
REMARK   65  A    between atoms: _151  and  _152
REMARK   66  A    between atoms: _154  and  _156
REMARK   67  A    between atoms: _156  and  _157
REMARK   68  A    between atoms: _159  and  _161
REMARK   69  A    between atoms: _161  and  _162
REMARK   70  A    between atoms: _161  and  _164
REMARK   71  A    between atoms: _164  and  _165
REMARK   72  A    between atoms: _171  and  _173
REMARK   73  A    between atoms: _173  and  _174
REMARK   74  A    between atoms: _173  and  _176
REMARK   75  A    between atoms: _176  and  _177
REMARK   76  A    between atoms: _177  and  _178
REMARK   77  A    between atoms: _180  and  _182
REMARK   78  A    between atoms: _182  and  _183
REMARK   79  A    between atoms: _182  and  _185
REMARK   80  A    between atoms: _185  and  _186
REMARK   81  A    between atoms: _189  and  _191
REMARK   82  A    between atoms: _191  and  _192
REMARK   83  A    between atoms: _191  and  _194
REMARK   84  A    between atoms: _194  and  _195
REMARK   85  A    between atoms: _199  and  _200
REMARK   86  A    between atoms: _205  and  _207
REMARK   87  A    between atoms: _207  and  _208
REMARK   88  A    between atoms: _211  and  _213
REMARK   89  A    between atoms: _213  and  _214
REMARK   90  A    between atoms: _213  and  _216
REMARK   91  A    between atoms: _216  and  _217
REMARK   92  A    between atoms: _222  and  _224
REMARK   93  A    between atoms: _224  and  _225
REMARK   94  A    between atoms: _224  and  _227
REMARK   95  A    between atoms: _227  and  _228
REMARK   96  A    between atoms: _231  and  _233
REMARK   97  A    between atoms: _233  and  _234
REMARK   98  A    between atoms: _233  and  _236
REMARK   99  A    between atoms: _236  and  _237
REMARK  100  A    between atoms: _240  and  _242
REMARK  101  A    between atoms: _242  and  _243
REMARK  102  A    between atoms: _245  and  _247
REMARK  103  A    between atoms: _247  and  _248
REMARK  104  A    between atoms: _247  and  _250
REMARK  105  A    between atoms: _250  and  _251
REMARK  106  A    between atoms: _251  and  _252
REMARK  107  A    between atoms: _252  and  _253
REMARK  108  A    between atoms: _262  and  _264
REMARK  109  A    between atoms: _264  and  _265
REMARK  110  A    between atoms: _264  and  _267
REMARK  111  A    between atoms: _267  and  _268
REMARK  112  A    between atoms: _273  and  _275
REMARK  113  A    between atoms: _275  and  _276
REMARK  114  A    between atoms: _275  and  _278
REMARK  115  A    between atoms: _278  and  _279
REMARK  116  A    between atoms: _279  and  _280
REMARK  117  A    between atoms: _280  and  _281
REMARK  118  A    between atoms: _290  and  _292
REMARK  119  A    between atoms: _292  and  _293
REMARK  120  A    between atoms: _292  and  _295
REMARK  121  A    between atoms: _295  and  _296
REMARK  122  A    between atoms: _302  and  _304
REMARK  123  A    between atoms: _304  and  _305
REMARK  124  A    between atoms: _304  and  _307
REMARK  125  A    between atoms: _307  and  _308
REMARK  126  A    between atoms: _311  and  _313
REMARK  127  A    between atoms: _313  and  _314
REMARK  128  A    between atoms: _313  and  _316
REMARK  129  A    between atoms: _316  and  _317
REMARK  130  A    between atoms: _320  and  _322
REMARK  131  A    between atoms: _322  and  _323
REMARK  132  A    between atoms: _322  and  _325
REMARK  133  A    between atoms: _325  and  _326
REMARK  134  A    between atoms: _329  and  _331
REMARK  135  A    between atoms: _331  and  _332
REMARK  136  A    between atoms: _331  and  _334
REMARK  137  A    between atoms: _334  and  _335
REMARK  138  A    between atoms: _338  and  _340
REMARK  139  A    between atoms: _340  and  _341
REMARK  140  A    between atoms: _343  and  _345
REMARK  141  A    between atoms: _345  and  _346
REMARK  142  A    between atoms: _349  and  _351
REMARK  143  A    between atoms: _351  and  _352
REMARK  144  A    between atoms: _351  and  _354
REMARK  145  A    between atoms: _354  and  _355
REMARK  146  A    between atoms: _358  and  _360
REMARK  147  A    between atoms: _360  and  _361
REMARK  148  A    between atoms: _360  and  _363
REMARK  149  A    between atoms: _363  and  _364
REMARK  150  A    between atoms: _367  and  _369
REMARK  151  A    between atoms: _369  and  _370
REMARK  152  A    between atoms: _369  and  _372
REMARK  153  A    between atoms: _372  and  _373
REMARK  154  A    between atoms: _376  and  _378
REMARK  155  A    between atoms: _378  and  _379
REMARK  156  A    between atoms: _378  and  _381
REMARK  157  A    between atoms: _381  and  _382
REMARK  158  A    between atoms: _385  and  _387
REMARK  159  A    between atoms: _387  and  _388
REMARK  160  A    between atoms: _387  and  _390
REMARK  161  A    between atoms: _390  and  _391
REMARK  162  A    between atoms: _391  and  _392
REMARK  163  A    between atoms: _395  and  _397
REMARK  164  A    between atoms: _397  and  _398
REMARK  165  A    between atoms: _397  and  _400
REMARK  166  A    between atoms: _400  and  _401
REMARK  167  A    between atoms: _401  and  _402
REMARK  168  A    between atoms: _402  and  _403
REMARK  169  A    between atoms: _403  and  _404
REMARK  170  A    between atoms: _408  and  _410
REMARK  171  A    between atoms: _410  and  _411
REMARK  172  A    between atoms: _410  and  _413
REMARK  173  A    between atoms: _416  and  _418
REMARK  174  A    between atoms: _418  and  _419
REMARK  175  A    between atoms: _418  and  _421
REMARK  176  A    between atoms: _424  and  _426
REMARK  177  A    between atoms: _426  and  _427
REMARK  178  A    between atoms: _429  and  _431
REMARK  179  A    between atoms: _431  and  _432
REMARK  180  A    between atoms: _434  and  _436
REMARK  181  A    between atoms: _436  and  _437
REMARK  182  A    between atoms: _436  and  _439
REMARK  183  A    between atoms: _439  and  _440
REMARK  184  A    between atoms: _443  and  _445
REMARK  185  A    between atoms: _445  and  _446
REMARK  186  A    between atoms: _448  and  _450
REMARK  187  A    between atoms: _450  and  _451
REMARK  188  A    between atoms: _453  and  _455
REMARK  189  A    between atoms: _455  and  _456
REMARK  190  A    between atoms: _455  and  _458
REMARK  191  A    between atoms: _458  and  _459
REMARK  192  A    between atoms: _459  and  _460
REMARK  193  A    between atoms: _462  and  _464
REMARK  194  A    between atoms: _464  and  _465
REMARK  195  A    between atoms: _464  and  _467
REMARK  196  A    between atoms: _470  and  _472
REMARK  197  A    between atoms: _472  and  _473
REMARK  198  A    between atoms: _472  and  _475
REMARK  199  A    between atoms: _475  and  _476
REMARK  200  A    between atoms: _480  and  _481
REMARK  201  A    between atoms: _486  and  _488
REMARK  202  A    between atoms: _488  and  _489
REMARK  203  A    between atoms: _488  and  _491
REMARK  204  A    between atoms: _491  and  _492
REMARK  205  A    between atoms: _496  and  _497
REMARK  206  A    between atoms: _502  and  _504
REMARK  207  A    between atoms: _504  and  _505
REMARK  208  A    between atoms: _508  and  _510
REMARK  209  A    between atoms: _510  and  _511
REMARK  210  A    between atoms: _510  and  _513
REMARK  211  A    between atoms: _513  and  _514
REMARK  212  A    between atoms: _519  and  _521
REMARK  213  A    between atoms: _521  and  _522
REMARK  214  A    between atoms: _521  and  _524
REMARK  215  A    between atoms: _524  and  _525
REMARK  216  A    between atoms: _528  and  _530
REMARK  217  A    between atoms: _530  and  _531
REMARK  218  A    between atoms: _530  and  _533
REMARK  219  A    between atoms: _533  and  _534
REMARK  220  A    between atoms: _537  and  _539
REMARK  221  A    between atoms: _539  and  _540
REMARK  222  A    between atoms: _542  and  _544
REMARK  223  A    between atoms: _544  and  _545
REMARK  224  A    between atoms: _544  and  _547
REMARK  225  A    between atoms: _547  and  _548
REMARK  226  A    between atoms: _548  and  _549
REMARK  227  A    between atoms: _549  and  _550
REMARK  228  A    between atoms: _559  and  _561
REMARK  229  A    between atoms: _561  and  _562
REMARK  230  A    between atoms: _561  and  _564
REMARK  231  A    between atoms: _564  and  _565
REMARK                            x       y       z     vdW  Elec       q    Type
REMARK                         _______ _______ _______ _____ _____    ______ ____
ROOT
ATOM      1  O   HOH     1     -12.287  58.803  14.170  0.00  0.00    +0.000 OA
ENDROOT
TORSDOF 0
