REMARK  Name = ../refined-set-2016/4exs/4exs_pocket.pdb
REMARK  106 active torsions:
REMARK  status: ('A' for Active; 'I' for Inactive)
REMARK    1  A    between atoms: _1  and  _3
REMARK    2  A    between atoms: _3  and  _4
REMARK    3  A    between atoms: _3  and  _6
REMARK    4  A    between atoms: _6  and  _7
REMARK    5  A    between atoms: _10  and  _12
REMARK    6  A    between atoms: _12  and  _13
REMARK    7  A    between atoms: _12  and  _15
REMARK    8  A    between atoms: _15  and  _16
REMARK    9  A    between atoms: _22  and  _24
REMARK   10  A    between atoms: _24  and  _25
REMARK   11  A    between atoms: _24  and  _27
REMARK   12  A    between atoms: _30  and  _32
REMARK   13  A    between atoms: _32  and  _33
REMARK   14  A    between atoms: _36  and  _38
REMARK   15  A    between atoms: _38  and  _39
REMARK   16  A    between atoms: _38  and  _41
REMARK   17  A    between atoms: _41  and  _42
REMARK   18  A    between atoms: _44  and  _46
REMARK   19  A    between atoms: _46  and  _47
REMARK   20  A    between atoms: _46  and  _49
REMARK   21  A    between atoms: _49  and  _50
REMARK   22  A    between atoms: _60  and  _62
REMARK   23  A    between atoms: _79  and  _80
REMARK   24  A    between atoms: _88  and  _90
REMARK   25  A    between atoms: _90  and  _91
REMARK   26  A    between atoms: _90  and  _93
REMARK   27  A    between atoms: _93  and  _94
REMARK   28  A    between atoms: _94  and  _95
REMARK   29  A    between atoms: _100  and  _102
REMARK   30  A    between atoms: _102  and  _103
REMARK   31  A    between atoms: _102  and  _105
REMARK   32  A    between atoms: _105  and  _106
REMARK   33  A    between atoms: _106  and  _108
REMARK   34  A    between atoms: _108  and  ZN_261
REMARK   35  A    between atoms: _109  and  _111
REMARK   36  A    between atoms: _111  and  _112
REMARK   37  A    between atoms: _111  and  _114
REMARK   38  A    between atoms: _114  and  _115
REMARK   39  A    between atoms: _115  and  _116
REMARK   40  A    between atoms: _116  and  _117
REMARK   41  A    between atoms: _117  and  _118
REMARK   42  A    between atoms: _122  and  _124
REMARK   43  A    between atoms: _124  and  _125
REMARK   44  A    between atoms: _124  and  _127
REMARK   45  A    between atoms: _127  and  _128
REMARK   46  A    between atoms: _128  and  _129
REMARK   47  A    between atoms: _131  and  _133
REMARK   48  A    between atoms: _133  and  _134
REMARK   49  A    between atoms: _133  and  _136
REMARK   50  A    between atoms: _136  and  _137
REMARK   51  A    between atoms: _141  and  ZN_260
REMARK   52  A    between atoms: _142  and  _144
REMARK   53  A    between atoms: _144  and  _145
REMARK   54  A    between atoms: _144  and  _147
REMARK   55  A    between atoms: _147  and  _148
REMARK   56  A    between atoms: _151  and  _153
REMARK   57  A    between atoms: _153  and  _154
REMARK   58  A    between atoms: _156  and  _158
REMARK   59  A    between atoms: _158  and  _159
REMARK   60  A    between atoms: _158  and  _161
REMARK   61  A    between atoms: _161  and  _162
REMARK   62  A    between atoms: _162  and  ZN_261
REMARK   63  A    between atoms: _163  and  _165
REMARK   64  A    between atoms: _165  and  _166
REMARK   65  A    between atoms: _165  and  _168
REMARK   66  A    between atoms: _168  and  _169
REMARK   67  A    between atoms: _172  and  _174
REMARK   68  A    between atoms: _174  and  _175
REMARK   69  A    between atoms: _174  and  _177
REMARK   70  A    between atoms: _177  and  _178
REMARK   71  A    between atoms: _178  and  _179
REMARK   72  A    between atoms: _179  and  _180
REMARK   73  A    between atoms: _180  and  _181
REMARK   74  A    between atoms: _185  and  _187
REMARK   75  A    between atoms: _187  and  _188
REMARK   76  A    between atoms: _187  and  _190
REMARK   77  A    between atoms: _190  and  _191
REMARK   78  A    between atoms: _193  and  _195
REMARK   79  A    between atoms: _195  and  _196
REMARK   80  A    between atoms: _195  and  _198
REMARK   81  A    between atoms: _198  and  _199
REMARK   82  A    between atoms: _202  and  _204
REMARK   83  A    between atoms: _204  and  _205
REMARK   84  A    between atoms: _207  and  _209
REMARK   85  A    between atoms: _209  and  _210
REMARK   86  A    between atoms: _209  and  _212
REMARK   87  A    between atoms: _212  and  _213
REMARK   88  A    between atoms: _218  and  _220
REMARK   89  A    between atoms: _220  and  _221
REMARK   90  A    between atoms: _220  and  _223
REMARK   91  A    between atoms: _223  and  _224
REMARK   92  A    between atoms: _227  and  _229
REMARK   93  A    between atoms: _229  and  _230
REMARK   94  A    between atoms: _232  and  _234
REMARK   95  A    between atoms: _234  and  _235
REMARK   96  A    between atoms: _234  and  _237
REMARK   97  A    between atoms: _237  and  _238
REMARK   98  A    between atoms: _241  and  _243
REMARK   99  A    between atoms: _243  and  _244
REMARK  100  A    between atoms: _243  and  _246
REMARK  101  A    between atoms: _246  and  _247
REMARK  102  A    between atoms: _249  and  _251
REMARK  103  A    between atoms: _251  and  _252
REMARK  104  A    between atoms: _251  and  _254
REMARK  105  A    between atoms: _254  and  _255
REMARK  106  A    between atoms: _259  and  ZN_261
REMARK                            x       y       z     vdW  Elec       q    Type
REMARK                         _______ _______ _______ _____ _____    ______ ____
ROOT
ATOM      1  CA  LEU A   1     -41.223   6.031   7.755  0.00  0.00    +0.133 C 
ENDROOT
BRANCH   1   2
ATOM      2  N   LEU A   1     -39.823   5.760   7.451  0.00  0.00    -0.239 NA
ATOM      3  H   LEU A   1     -39.567   5.319   6.545  0.00  0.00    +0.142 HD
ENDBRANCH   1   2
BRANCH   1   4
ATOM      4  C   LEU A   1     -41.798   5.118   8.821  0.00  0.00    +0.224 C 
ATOM      5  O   LEU A   1     -41.776   3.872   8.708  0.00  0.00    -0.287 OA
ENDBRANCH   1   4
BRANCH   1   6
ATOM      6  CB  LEU A   1     -42.123   6.017   6.529  0.00  0.00    +0.025 C 
BRANCH   6   7
ATOM      7  CG  LEU A   1     -43.558   6.528   6.777  0.00  0.00    +0.002 C 
ATOM      8  CD2 LEU A   1     -43.641   8.037   6.901  0.00  0.00    +0.000 C 
ATOM      9  CD1 LEU A   1     -44.471   6.071   5.672  0.00  0.00    +0.000 C 
ENDBRANCH   6   7
ENDBRANCH   1   6
TORSDOF 4
REMARK  Name = ../refined-set-2016/4exs/4exs_pocket.pdb
REMARK  106 active torsions:
REMARK  status: ('A' for Active; 'I' for Inactive)
REMARK    1  A    between atoms: _1  and  _3
REMARK    2  A    between atoms: _3  and  _4
REMARK    3  A    between atoms: _3  and  _6
REMARK    4  A    between atoms: _6  and  _7
REMARK    5  A    between atoms: _10  and  _12
REMARK    6  A    between atoms: _12  and  _13
REMARK    7  A    between atoms: _12  and  _15
REMARK    8  A    between atoms: _15  and  _16
REMARK    9  A    between atoms: _22  and  _24
REMARK   10  A    between atoms: _24  and  _25
REMARK   11  A    between atoms: _24  and  _27
REMARK   12  A    between atoms: _30  and  _32
REMARK   13  A    between atoms: _32  and  _33
REMARK   14  A    between atoms: _36  and  _38
REMARK   15  A    between atoms: _38  and  _39
REMARK   16  A    between atoms: _38  and  _41
REMARK   17  A    between atoms: _41  and  _42
REMARK   18  A    between atoms: _44  and  _46
REMARK   19  A    between atoms: _46  and  _47
REMARK   20  A    between atoms: _46  and  _49
REMARK   21  A    between atoms: _49  and  _50
REMARK   22  A    between atoms: _60  and  _62
REMARK   23  A    between atoms: _79  and  _80
REMARK   24  A    between atoms: _88  and  _90
REMARK   25  A    between atoms: _90  and  _91
REMARK   26  A    between atoms: _90  and  _93
REMARK   27  A    between atoms: _93  and  _94
REMARK   28  A    between atoms: _94  and  _95
REMARK   29  A    between atoms: _100  and  _102
REMARK   30  A    between atoms: _102  and  _103
REMARK   31  A    between atoms: _102  and  _105
REMARK   32  A    between atoms: _105  and  _106
REMARK   33  A    between atoms: _106  and  _108
REMARK   34  A    between atoms: _108  and  ZN_261
REMARK   35  A    between atoms: _109  and  _111
REMARK   36  A    between atoms: _111  and  _112
REMARK   37  A    between atoms: _111  and  _114
REMARK   38  A    between atoms: _114  and  _115
REMARK   39  A    between atoms: _115  and  _116
REMARK   40  A    between atoms: _116  and  _117
REMARK   41  A    between atoms: _117  and  _118
REMARK   42  A    between atoms: _122  and  _124
REMARK   43  A    between atoms: _124  and  _125
REMARK   44  A    between atoms: _124  and  _127
REMARK   45  A    between atoms: _127  and  _128
REMARK   46  A    between atoms: _128  and  _129
REMARK   47  A    between atoms: _131  and  _133
REMARK   48  A    between atoms: _133  and  _134
REMARK   49  A    between atoms: _133  and  _136
REMARK   50  A    between atoms: _136  and  _137
REMARK   51  A    between atoms: _141  and  ZN_260
REMARK   52  A    between atoms: _142  and  _144
REMARK   53  A    between atoms: _144  and  _145
REMARK   54  A    between atoms: _144  and  _147
REMARK   55  A    between atoms: _147  and  _148
REMARK   56  A    between atoms: _151  and  _153
REMARK   57  A    between atoms: _153  and  _154
REMARK   58  A    between atoms: _156  and  _158
REMARK   59  A    between atoms: _158  and  _159
REMARK   60  A    between atoms: _158  and  _161
REMARK   61  A    between atoms: _161  and  _162
REMARK   62  A    between atoms: _162  and  ZN_261
REMARK   63  A    between atoms: _163  and  _165
REMARK   64  A    between atoms: _165  and  _166
REMARK   65  A    between atoms: _165  and  _168
REMARK   66  A    between atoms: _168  and  _169
REMARK   67  A    between atoms: _172  and  _174
REMARK   68  A    between atoms: _174  and  _175
REMARK   69  A    between atoms: _174  and  _177
REMARK   70  A    between atoms: _177  and  _178
REMARK   71  A    between atoms: _178  and  _179
REMARK   72  A    between atoms: _179  and  _180
REMARK   73  A    between atoms: _180  and  _181
REMARK   74  A    between atoms: _185  and  _187
REMARK   75  A    between atoms: _187  and  _188
REMARK   76  A    between atoms: _187  and  _190
REMARK   77  A    between atoms: _190  and  _191
REMARK   78  A    between atoms: _193  and  _195
REMARK   79  A    between atoms: _195  and  _196
REMARK   80  A    between atoms: _195  and  _198
REMARK   81  A    between atoms: _198  and  _199
REMARK   82  A    between atoms: _202  and  _204
REMARK   83  A    between atoms: _204  and  _205
REMARK   84  A    between atoms: _207  and  _209
REMARK   85  A    between atoms: _209  and  _210
REMARK   86  A    between atoms: _209  and  _212
REMARK   87  A    between atoms: _212  and  _213
REMARK   88  A    between atoms: _218  and  _220
REMARK   89  A    between atoms: _220  and  _221
REMARK   90  A    between atoms: _220  and  _223
REMARK   91  A    between atoms: _223  and  _224
REMARK   92  A    between atoms: _227  and  _229
REMARK   93  A    between atoms: _229  and  _230
REMARK   94  A    between atoms: _232  and  _234
REMARK   95  A    between atoms: _234  and  _235
REMARK   96  A    between atoms: _234  and  _237
REMARK   97  A    between atoms: _237  and  _238
REMARK   98  A    between atoms: _241  and  _243
REMARK   99  A    between atoms: _243  and  _244
REMARK  100  A    between atoms: _243  and  _246
REMARK  101  A    between atoms: _246  and  _247
REMARK  102  A    between atoms: _249  and  _251
REMARK  103  A    between atoms: _251  and  _252
REMARK  104  A    between atoms: _251  and  _254
REMARK  105  A    between atoms: _254  and  _255
REMARK  106  A    between atoms: _259  and  ZN_261
REMARK                            x       y       z     vdW  Elec       q    Type
REMARK                         _______ _______ _______ _____ _____    ______ ____
ROOT
ATOM      1  CB  PHE A   1     -46.318   0.539   5.531  0.00  0.00    +0.051 C 
ENDROOT
BRANCH   1   2
ATOM      2  CG  PHE A   1     -47.214  -0.114   4.505  0.00  0.00    -0.020 A 
ATOM      3  CD2 PHE A   1     -48.469   0.418   4.204  0.00  0.00    -0.004 A 
ATOM      4  CE2 PHE A   1     -49.300  -0.201   3.287  0.00  0.00    -0.000 A 
ATOM      5  CZ  PHE A   1     -48.893  -1.366   2.673  0.00  0.00    -0.000 A 
ATOM      6  CE1 PHE A   1     -47.662  -1.913   2.970  0.00  0.00    -0.000 A 
ATOM      7  CD1 PHE A   1     -46.832  -1.296   3.883  0.00  0.00    -0.004 A 
ENDBRANCH   1   2
BRANCH   1   8
ATOM      8  CA  PHE A   1     -46.338  -0.172   6.882  0.00  0.00    +0.137 C 
BRANCH   8   9
ATOM      9  N   PHE A   1     -47.433   0.301   7.730  0.00  0.00    -0.239 NA
ATOM     10  H   PHE A   1     -47.224   0.953   8.513  0.00  0.00    +0.142 HD
ENDBRANCH   8   9
BRANCH   8  11
ATOM     11  C   PHE A   1     -44.946  -0.274   7.499  0.00  0.00    +0.224 C 
ATOM     12  O   PHE A   1     -44.668   0.283   8.563  0.00  0.00    -0.287 OA
ENDBRANCH   8  11
ENDBRANCH   1   8
TORSDOF 4
REMARK  Name = ../refined-set-2016/4exs/4exs_pocket.pdb
REMARK  106 active torsions:
REMARK  status: ('A' for Active; 'I' for Inactive)
REMARK    1  A    between atoms: _1  and  _3
REMARK    2  A    between atoms: _3  and  _4
REMARK    3  A    between atoms: _3  and  _6
REMARK    4  A    between atoms: _6  and  _7
REMARK    5  A    between atoms: _10  and  _12
REMARK    6  A    between atoms: _12  and  _13
REMARK    7  A    between atoms: _12  and  _15
REMARK    8  A    between atoms: _15  and  _16
REMARK    9  A    between atoms: _22  and  _24
REMARK   10  A    between atoms: _24  and  _25
REMARK   11  A    between atoms: _24  and  _27
REMARK   12  A    between atoms: _30  and  _32
REMARK   13  A    between atoms: _32  and  _33
REMARK   14  A    between atoms: _36  and  _38
REMARK   15  A    between atoms: _38  and  _39
REMARK   16  A    between atoms: _38  and  _41
REMARK   17  A    between atoms: _41  and  _42
REMARK   18  A    between atoms: _44  and  _46
REMARK   19  A    between atoms: _46  and  _47
REMARK   20  A    between atoms: _46  and  _49
REMARK   21  A    between atoms: _49  and  _50
REMARK   22  A    between atoms: _60  and  _62
REMARK   23  A    between atoms: _79  and  _80
REMARK   24  A    between atoms: _88  and  _90
REMARK   25  A    between atoms: _90  and  _91
REMARK   26  A    between atoms: _90  and  _93
REMARK   27  A    between atoms: _93  and  _94
REMARK   28  A    between atoms: _94  and  _95
REMARK   29  A    between atoms: _100  and  _102
REMARK   30  A    between atoms: _102  and  _103
REMARK   31  A    between atoms: _102  and  _105
REMARK   32  A    between atoms: _105  and  _106
REMARK   33  A    between atoms: _106  and  _108
REMARK   34  A    between atoms: _108  and  ZN_261
REMARK   35  A    between atoms: _109  and  _111
REMARK   36  A    between atoms: _111  and  _112
REMARK   37  A    between atoms: _111  and  _114
REMARK   38  A    between atoms: _114  and  _115
REMARK   39  A    between atoms: _115  and  _116
REMARK   40  A    between atoms: _116  and  _117
REMARK   41  A    between atoms: _117  and  _118
REMARK   42  A    between atoms: _122  and  _124
REMARK   43  A    between atoms: _124  and  _125
REMARK   44  A    between atoms: _124  and  _127
REMARK   45  A    between atoms: _127  and  _128
REMARK   46  A    between atoms: _128  and  _129
REMARK   47  A    between atoms: _131  and  _133
REMARK   48  A    between atoms: _133  and  _134
REMARK   49  A    between atoms: _133  and  _136
REMARK   50  A    between atoms: _136  and  _137
REMARK   51  A    between atoms: _141  and  ZN_260
REMARK   52  A    between atoms: _142  and  _144
REMARK   53  A    between atoms: _144  and  _145
REMARK   54  A    between atoms: _144  and  _147
REMARK   55  A    between atoms: _147  and  _148
REMARK   56  A    between atoms: _151  and  _153
REMARK   57  A    between atoms: _153  and  _154
REMARK   58  A    between atoms: _156  and  _158
REMARK   59  A    between atoms: _158  and  _159
REMARK   60  A    between atoms: _158  and  _161
REMARK   61  A    between atoms: _161  and  _162
REMARK   62  A    between atoms: _162  and  ZN_261
REMARK   63  A    between atoms: _163  and  _165
REMARK   64  A    between atoms: _165  and  _166
REMARK   65  A    between atoms: _165  and  _168
REMARK   66  A    between atoms: _168  and  _169
REMARK   67  A    between atoms: _172  and  _174
REMARK   68  A    between atoms: _174  and  _175
REMARK   69  A    between atoms: _174  and  _177
REMARK   70  A    between atoms: _177  and  _178
REMARK   71  A    between atoms: _178  and  _179
REMARK   72  A    between atoms: _179  and  _180
REMARK   73  A    between atoms: _180  and  _181
REMARK   74  A    between atoms: _185  and  _187
REMARK   75  A    between atoms: _187  and  _188
REMARK   76  A    between atoms: _187  and  _190
REMARK   77  A    between atoms: _190  and  _191
REMARK   78  A    between atoms: _193  and  _195
REMARK   79  A    between atoms: _195  and  _196
REMARK   80  A    between atoms: _195  and  _198
REMARK   81  A    between atoms: _198  and  _199
REMARK   82  A    between atoms: _202  and  _204
REMARK   83  A    between atoms: _204  and  _205
REMARK   84  A    between atoms: _207  and  _209
REMARK   85  A    between atoms: _209  and  _210
REMARK   86  A    between atoms: _209  and  _212
REMARK   87  A    between atoms: _212  and  _213
REMARK   88  A    between atoms: _218  and  _220
REMARK   89  A    between atoms: _220  and  _221
REMARK   90  A    between atoms: _220  and  _223
REMARK   91  A    between atoms: _223  and  _224
REMARK   92  A    between atoms: _227  and  _229
REMARK   93  A    between atoms: _229  and  _230
REMARK   94  A    between atoms: _232  and  _234
REMARK   95  A    between atoms: _234  and  _235
REMARK   96  A    between atoms: _234  and  _237
REMARK   97  A    between atoms: _237  and  _238
REMARK   98  A    between atoms: _241  and  _243
REMARK   99  A    between atoms: _243  and  _244
REMARK  100  A    between atoms: _243  and  _246
REMARK  101  A    between atoms: _246  and  _247
REMARK  102  A    between atoms: _249  and  _251
REMARK  103  A    between atoms: _251  and  _252
REMARK  104  A    between atoms: _251  and  _254
REMARK  105  A    between atoms: _254  and  _255
REMARK  106  A    between atoms: _259  and  ZN_261
REMARK                            x       y       z     vdW  Elec       q    Type
REMARK                         _______ _______ _______ _____ _____    ______ ____
ROOT
ATOM      1  CA  ALA A   2     -35.864   3.918   4.040  0.00  0.00    +0.149 C 
ATOM      2  CB  ALA A   2     -34.609   3.086   3.872  0.00  0.00    +0.031 C 
ENDROOT
BRANCH   1   5
ATOM      3  C   VAL A   1     -38.195   3.382   4.527  0.00  0.00    +0.238 C 
ATOM      4  O   VAL A   1     -38.413   4.502   4.988  0.00  0.00    -0.274 OA
ATOM      5  N   ALA A   2     -37.026   3.040   4.014  0.00  0.00    -0.297 N 
ATOM      6  H   ALA A   2     -36.932   2.103   3.572  0.00  0.00    +0.150 HD
BRANCH   3   7
ATOM      7  CA  VAL A   1     -39.279   2.286   4.506  0.00  0.00    +0.145 C 
BRANCH   7   8
ATOM      8  CB  VAL A   1     -40.480   2.677   3.590  0.00  0.00    +0.025 C 
ATOM      9  CG2 VAL A   1     -41.435   1.516   3.479  0.00  0.00    +0.002 C 
ATOM     10  CG1 VAL A   1     -40.020   3.067   2.211  0.00  0.00    +0.002 C 
ENDBRANCH   7   8
BRANCH   7  11
ATOM     11  N   VAL A   1     -39.730   1.939   5.844  0.00  0.00    -0.238 NA
ATOM     12  H   VAL A   1     -40.600   2.371   6.217  0.00  0.00    +0.142 HD
ENDBRANCH   7  11
ENDBRANCH   3   7
ENDBRANCH   1   5
BRANCH   1  13
ATOM     13  C   ALA A   2     -35.945   4.970   2.934  0.00  0.00    +0.241 C 
ATOM     14  N   SER A   3     -35.619   6.214   3.267  0.00  0.00    -0.296 N 
ATOM     15  H   SER A   3     -35.523   6.461   4.273  0.00  0.00    +0.150 HD
ATOM     16  O   ALA A   2     -36.300   4.653   1.799  0.00  0.00    -0.273 OA
BRANCH  14  17
ATOM     17  CA  SER A   3     -35.390   7.250   2.252  0.00  0.00    +0.166 C 
BRANCH  17  18
ATOM     18  CB  SER A   3     -34.007   7.840   2.400  0.00  0.00    +0.229 C 
ATOM     19  OG  SER A   3     -33.593   8.131   3.502  0.00  0.00    -0.286 OA
ENDBRANCH  17  18
BRANCH  17  20
ATOM     20  C   SER A   3     -36.406   8.392   2.340  0.00  0.00    +0.165 C 
BRANCH  20  21
ATOM     21  O   SER A   3     -36.383   9.135   1.137  0.00  0.00    -0.380 OA
ATOM     22  H   SER A   3     -35.477   9.508   0.998  0.00  0.00    +0.211 HD
ENDBRANCH  20  21
ENDBRANCH  17  20
ENDBRANCH  14  17
ENDBRANCH   1  13
TORSDOF 9
REMARK  Name = ../refined-set-2016/4exs/4exs_pocket.pdb
REMARK  106 active torsions:
REMARK  status: ('A' for Active; 'I' for Inactive)
REMARK    1  A    between atoms: _1  and  _3
REMARK    2  A    between atoms: _3  and  _4
REMARK    3  A    between atoms: _3  and  _6
REMARK    4  A    between atoms: _6  and  _7
REMARK    5  A    between atoms: _10  and  _12
REMARK    6  A    between atoms: _12  and  _13
REMARK    7  A    between atoms: _12  and  _15
REMARK    8  A    between atoms: _15  and  _16
REMARK    9  A    between atoms: _22  and  _24
REMARK   10  A    between atoms: _24  and  _25
REMARK   11  A    between atoms: _24  and  _27
REMARK   12  A    between atoms: _30  and  _32
REMARK   13  A    between atoms: _32  and  _33
REMARK   14  A    between atoms: _36  and  _38
REMARK   15  A    between atoms: _38  and  _39
REMARK   16  A    between atoms: _38  and  _41
REMARK   17  A    between atoms: _41  and  _42
REMARK   18  A    between atoms: _44  and  _46
REMARK   19  A    between atoms: _46  and  _47
REMARK   20  A    between atoms: _46  and  _49
REMARK   21  A    between atoms: _49  and  _50
REMARK   22  A    between atoms: _60  and  _62
REMARK   23  A    between atoms: _79  and  _80
REMARK   24  A    between atoms: _88  and  _90
REMARK   25  A    between atoms: _90  and  _91
REMARK   26  A    between atoms: _90  and  _93
REMARK   27  A    between atoms: _93  and  _94
REMARK   28  A    between atoms: _94  and  _95
REMARK   29  A    between atoms: _100  and  _102
REMARK   30  A    between atoms: _102  and  _103
REMARK   31  A    between atoms: _102  and  _105
REMARK   32  A    between atoms: _105  and  _106
REMARK   33  A    between atoms: _106  and  _108
REMARK   34  A    between atoms: _108  and  ZN_261
REMARK   35  A    between atoms: _109  and  _111
REMARK   36  A    between atoms: _111  and  _112
REMARK   37  A    between atoms: _111  and  _114
REMARK   38  A    between atoms: _114  and  _115
REMARK   39  A    between atoms: _115  and  _116
REMARK   40  A    between atoms: _116  and  _117
REMARK   41  A    between atoms: _117  and  _118
REMARK   42  A    between atoms: _122  and  _124
REMARK   43  A    between atoms: _124  and  _125
REMARK   44  A    between atoms: _124  and  _127
REMARK   45  A    between atoms: _127  and  _128
REMARK   46  A    between atoms: _128  and  _129
REMARK   47  A    between atoms: _131  and  _133
REMARK   48  A    between atoms: _133  and  _134
REMARK   49  A    between atoms: _133  and  _136
REMARK   50  A    between atoms: _136  and  _137
REMARK   51  A    between atoms: _141  and  ZN_260
REMARK   52  A    between atoms: _142  and  _144
REMARK   53  A    between atoms: _144  and  _145
REMARK   54  A    between atoms: _144  and  _147
REMARK   55  A    between atoms: _147  and  _148
REMARK   56  A    between atoms: _151  and  _153
REMARK   57  A    between atoms: _153  and  _154
REMARK   58  A    between atoms: _156  and  _158
REMARK   59  A    between atoms: _158  and  _159
REMARK   60  A    between atoms: _158  and  _161
REMARK   61  A    between atoms: _161  and  _162
REMARK   62  A    between atoms: _162  and  ZN_261
REMARK   63  A    between atoms: _163  and  _165
REMARK   64  A    between atoms: _165  and  _166
REMARK   65  A    between atoms: _165  and  _168
REMARK   66  A    between atoms: _168  and  _169
REMARK   67  A    between atoms: _172  and  _174
REMARK   68  A    between atoms: _174  and  _175
REMARK   69  A    between atoms: _174  and  _177
REMARK   70  A    between atoms: _177  and  _178
REMARK   71  A    between atoms: _178  and  _179
REMARK   72  A    between atoms: _179  and  _180
REMARK   73  A    between atoms: _180  and  _181
REMARK   74  A    between atoms: _185  and  _187
REMARK   75  A    between atoms: _187  and  _188
REMARK   76  A    between atoms: _187  and  _190
REMARK   77  A    between atoms: _190  and  _191
REMARK   78  A    between atoms: _193  and  _195
REMARK   79  A    between atoms: _195  and  _196
REMARK   80  A    between atoms: _195  and  _198
REMARK   81  A    between atoms: _198  and  _199
REMARK   82  A    between atoms: _202  and  _204
REMARK   83  A    between atoms: _204  and  _205
REMARK   84  A    between atoms: _207  and  _209
REMARK   85  A    between atoms: _209  and  _210
REMARK   86  A    between atoms: _209  and  _212
REMARK   87  A    between atoms: _212  and  _213
REMARK   88  A    between atoms: _218  and  _220
REMARK   89  A    between atoms: _220  and  _221
REMARK   90  A    between atoms: _220  and  _223
REMARK   91  A    between atoms: _223  and  _224
REMARK   92  A    between atoms: _227  and  _229
REMARK   93  A    between atoms: _229  and  _230
REMARK   94  A    between atoms: _232  and  _234
REMARK   95  A    between atoms: _234  and  _235
REMARK   96  A    between atoms: _234  and  _237
REMARK   97  A    between atoms: _237  and  _238
REMARK   98  A    between atoms: _241  and  _243
REMARK   99  A    between atoms: _243  and  _244
REMARK  100  A    between atoms: _243  and  _246
REMARK  101  A    between atoms: _246  and  _247
REMARK  102  A    between atoms: _249  and  _251
REMARK  103  A    between atoms: _251  and  _252
REMARK  104  A    between atoms: _251  and  _254
REMARK  105  A    between atoms: _254  and  _255
REMARK  106  A    between atoms: _259  and  ZN_261
REMARK                            x       y       z     vdW  Elec       q    Type
REMARK                         _______ _______ _______ _____ _____    ______ ____
ROOT
ATOM      1  CG  TRP A   1     -39.976   9.313   5.653  0.00  0.00    -0.002 A 
ATOM      2  CD1 TRP A   1     -38.829   8.590   5.839  0.00  0.00    +0.068 A 
ATOM      3  NE1 TRP A   1     -38.727   7.623   4.876  0.00  0.00    -0.352 N 
ATOM      4  HE1 TRP A   1     -37.927   6.968   4.764  0.00  0.00    +0.166 HD
ATOM      5  CE2 TRP A   1     -39.845   7.652   4.081  0.00  0.00    +0.056 A 
ATOM      6  CZ2 TRP A   1     -40.182   6.868   2.957  0.00  0.00    +0.017 A 
ATOM      7  CH2 TRP A   1     -41.371   7.156   2.303  0.00  0.00    +0.001 A 
ATOM      8  CZ3 TRP A   1     -42.178   8.228   2.710  0.00  0.00    +0.000 A 
ATOM      9  CE3 TRP A   1     -41.817   9.031   3.815  0.00  0.00    +0.001 A 
ATOM     10  CD2 TRP A   1     -40.641   8.731   4.518  0.00  0.00    +0.013 A 
ENDROOT
BRANCH   1  11
ATOM     11  CB  TRP A   1     -40.441  10.447   6.481  0.00  0.00    +0.053 C 
BRANCH  11  12
ATOM     12  CA  TRP A   1     -40.024  11.829   5.981  0.00  0.00    +0.137 C 
BRANCH  12  13
ATOM     13  N   TRP A   1     -38.570  12.015   5.995  0.00  0.00    -0.239 NA
ATOM     14  H   TRP A   1     -37.953  11.241   6.315  0.00  0.00    +0.142 HD
ENDBRANCH  12  13
BRANCH  12  15
ATOM     15  C   TRP A   1     -40.811  12.886   6.747  0.00  0.00    +0.224 C 
ATOM     16  O   TRP A   1     -41.908  13.212   6.334  0.00  0.00    -0.287 OA
ENDBRANCH  12  15
ENDBRANCH  11  12
ENDBRANCH   1  11
TORSDOF 4
REMARK  Name = ../refined-set-2016/4exs/4exs_pocket.pdb
REMARK  106 active torsions:
REMARK  status: ('A' for Active; 'I' for Inactive)
REMARK    1  A    between atoms: _1  and  _3
REMARK    2  A    between atoms: _3  and  _4
REMARK    3  A    between atoms: _3  and  _6
REMARK    4  A    between atoms: _6  and  _7
REMARK    5  A    between atoms: _10  and  _12
REMARK    6  A    between atoms: _12  and  _13
REMARK    7  A    between atoms: _12  and  _15
REMARK    8  A    between atoms: _15  and  _16
REMARK    9  A    between atoms: _22  and  _24
REMARK   10  A    between atoms: _24  and  _25
REMARK   11  A    between atoms: _24  and  _27
REMARK   12  A    between atoms: _30  and  _32
REMARK   13  A    between atoms: _32  and  _33
REMARK   14  A    between atoms: _36  and  _38
REMARK   15  A    between atoms: _38  and  _39
REMARK   16  A    between atoms: _38  and  _41
REMARK   17  A    between atoms: _41  and  _42
REMARK   18  A    between atoms: _44  and  _46
REMARK   19  A    between atoms: _46  and  _47
REMARK   20  A    between atoms: _46  and  _49
REMARK   21  A    between atoms: _49  and  _50
REMARK   22  A    between atoms: _60  and  _62
REMARK   23  A    between atoms: _79  and  _80
REMARK   24  A    between atoms: _88  and  _90
REMARK   25  A    between atoms: _90  and  _91
REMARK   26  A    between atoms: _90  and  _93
REMARK   27  A    between atoms: _93  and  _94
REMARK   28  A    between atoms: _94  and  _95
REMARK   29  A    between atoms: _100  and  _102
REMARK   30  A    between atoms: _102  and  _103
REMARK   31  A    between atoms: _102  and  _105
REMARK   32  A    between atoms: _105  and  _106
REMARK   33  A    between atoms: _106  and  _108
REMARK   34  A    between atoms: _108  and  ZN_261
REMARK   35  A    between atoms: _109  and  _111
REMARK   36  A    between atoms: _111  and  _112
REMARK   37  A    between atoms: _111  and  _114
REMARK   38  A    between atoms: _114  and  _115
REMARK   39  A    between atoms: _115  and  _116
REMARK   40  A    between atoms: _116  and  _117
REMARK   41  A    between atoms: _117  and  _118
REMARK   42  A    between atoms: _122  and  _124
REMARK   43  A    between atoms: _124  and  _125
REMARK   44  A    between atoms: _124  and  _127
REMARK   45  A    between atoms: _127  and  _128
REMARK   46  A    between atoms: _128  and  _129
REMARK   47  A    between atoms: _131  and  _133
REMARK   48  A    between atoms: _133  and  _134
REMARK   49  A    between atoms: _133  and  _136
REMARK   50  A    between atoms: _136  and  _137
REMARK   51  A    between atoms: _141  and  ZN_260
REMARK   52  A    between atoms: _142  and  _144
REMARK   53  A    between atoms: _144  and  _145
REMARK   54  A    between atoms: _144  and  _147
REMARK   55  A    between atoms: _147  and  _148
REMARK   56  A    between atoms: _151  and  _153
REMARK   57  A    between atoms: _153  and  _154
REMARK   58  A    between atoms: _156  and  _158
REMARK   59  A    between atoms: _158  and  _159
REMARK   60  A    between atoms: _158  and  _161
REMARK   61  A    between atoms: _161  and  _162
REMARK   62  A    between atoms: _162  and  ZN_261
REMARK   63  A    between atoms: _163  and  _165
REMARK   64  A    between atoms: _165  and  _166
REMARK   65  A    between atoms: _165  and  _168
REMARK   66  A    between atoms: _168  and  _169
REMARK   67  A    between atoms: _172  and  _174
REMARK   68  A    between atoms: _174  and  _175
REMARK   69  A    between atoms: _174  and  _177
REMARK   70  A    between atoms: _177  and  _178
REMARK   71  A    between atoms: _178  and  _179
REMARK   72  A    between atoms: _179  and  _180
REMARK   73  A    between atoms: _180  and  _181
REMARK   74  A    between atoms: _185  and  _187
REMARK   75  A    between atoms: _187  and  _188
REMARK   76  A    between atoms: _187  and  _190
REMARK   77  A    between atoms: _190  and  _191
REMARK   78  A    between atoms: _193  and  _195
REMARK   79  A    between atoms: _195  and  _196
REMARK   80  A    between atoms: _195  and  _198
REMARK   81  A    between atoms: _198  and  _199
REMARK   82  A    between atoms: _202  and  _204
REMARK   83  A    between atoms: _204  and  _205
REMARK   84  A    between atoms: _207  and  _209
REMARK   85  A    between atoms: _209  and  _210
REMARK   86  A    between atoms: _209  and  _212
REMARK   87  A    between atoms: _212  and  _213
REMARK   88  A    between atoms: _218  and  _220
REMARK   89  A    between atoms: _220  and  _221
REMARK   90  A    between atoms: _220  and  _223
REMARK   91  A    between atoms: _223  and  _224
REMARK   92  A    between atoms: _227  and  _229
REMARK   93  A    between atoms: _229  and  _230
REMARK   94  A    between atoms: _232  and  _234
REMARK   95  A    between atoms: _234  and  _235
REMARK   96  A    between atoms: _234  and  _237
REMARK   97  A    between atoms: _237  and  _238
REMARK   98  A    between atoms: _241  and  _243
REMARK   99  A    between atoms: _243  and  _244
REMARK  100  A    between atoms: _243  and  _246
REMARK  101  A    between atoms: _246  and  _247
REMARK  102  A    between atoms: _249  and  _251
REMARK  103  A    between atoms: _251  and  _252
REMARK  104  A    between atoms: _251  and  _254
REMARK  105  A    between atoms: _254  and  _255
REMARK  106  A    between atoms: _259  and  ZN_261
REMARK                            x       y       z     vdW  Elec       q    Type
REMARK                         _______ _______ _______ _____ _____    ______ ____
ROOT
ATOM      1  C   UNK A   5     -39.903  11.352   1.602  0.00  0.00    +0.000 C 
ENDROOT
BRANCH   1   4
ATOM      2  C   GLN A   4     -41.871  12.784   1.933  0.00  0.00    +0.000 C 
ATOM      3  O   GLN A   4     -41.374  13.373   2.886  0.00  0.00    +0.000 OA
ATOM      4  N   UNK A   5     -41.260  11.802   1.275  0.00  0.00    +0.000 N 
ATOM      5  H   UNK A   5     -41.766  11.334   0.496  0.00  0.00    +0.000 HD
BRANCH   2   6
ATOM      6  CA  GLN A   4     -43.307  13.097   1.511  0.00  0.00    +0.000 C 
BRANCH   6   8
ATOM      7  C   UNK A   3     -42.998  13.661  -0.868  0.00  0.00    +0.000 C 
ATOM      8  N   GLN A   4     -43.585  12.927   0.075  0.00  0.00    +0.000 N 
ATOM      9  H   GLN A   4     -44.271  12.201  -0.216  0.00  0.00    +0.000 HD
ATOM     10  O   UNK A   3     -42.078  14.456  -0.644  0.00  0.00    +0.000 OA
BRANCH   7  18
ATOM     11  C   UNK A   1     -39.888  16.171  -5.962  0.00  0.00    +0.000 C 
ATOM     12  C   UNK A   1     -40.901  16.215  -4.841  0.00  0.00    +0.000 C 
ATOM     13  O   UNK A   1     -40.558  15.986  -3.679  0.00  0.00    +0.000 OA
ATOM     14  N   UNK A   2     -42.147  16.495  -5.200  0.00  0.00    +0.000 N 
ATOM     15  C   UNK A   2     -43.184  16.697  -4.229  0.00  0.00    +0.000 C 
ATOM     16  C   UNK A   2     -43.770  15.403  -3.715  0.00  0.00    +0.000 C 
ATOM     17  N   UNK A   3     -42.961  14.482  -3.190  0.00  0.00    +0.000 N 
ATOM     18  C   UNK A   3     -43.492  13.458  -2.287  0.00  0.00    +0.000 C 
ATOM     19  C   UNK A   3     -43.150  12.048  -2.768  0.00  0.00    +0.000 C 
ATOM     20  C   UNK A   3     -43.973  11.605  -3.938  0.00  0.00    +0.000 A 
ATOM     21  C   UNK A   3     -45.219  11.966  -4.337  0.00  0.00    +0.000 A 
ATOM     22  N   UNK A   3     -45.470  11.313  -5.515  0.00  0.00    +0.000 NA
ATOM     23  C   UNK A   3     -44.422  10.567  -5.824  0.00  0.00    +0.000 A 
ATOM     24  N   UNK A   3     -43.494  10.745  -4.903  0.00  0.00    +0.000 N 
ATOM     25 ZN   UNK A   3     -41.601   9.888  -4.997  0.00  0.00    +0.000 Zn
ATOM     26  N   UNK A   3     -40.673  11.703  -5.248  0.00  0.00    +0.000 N 
ATOM     27  C   UNK A   3     -39.372  11.707  -5.477  0.00  0.00    +0.000 A 
ATOM     28  N   UNK A   3     -39.050  12.851  -6.057  0.00  0.00    +0.000 NA
ATOM     29  C   UNK A   3     -40.179  13.627  -6.200  0.00  0.00    +0.000 A 
ATOM     30  C   UNK A   3     -41.210  12.880  -5.721  0.00  0.00    +0.000 A 
ATOM     31  H   UNK A   3     -41.947  14.491  -3.423  0.00  0.00    +0.000 HD
ATOM     32  O   UNK A   2     -44.971  15.244  -3.788  0.00  0.00    +0.000 OA
ATOM     33  C   UNK A   2     -44.294  17.549  -4.826  0.00  0.00    +0.000 C 
ATOM     34  H   UNK A   2     -42.378  16.570  -6.211  0.00  0.00    +0.000 HD
ATOM     35  C   UNK A   3     -40.157  14.964  -6.889  0.00  0.00    +0.000 C 
BRANCH  25  36
ATOM     36  N   UNK A   3     -41.403   8.993  -6.794  0.00  0.00    +0.000 N 
ATOM     37  C   UNK A   3     -41.609   7.710  -7.039  0.00  0.00    +0.000 A 
ATOM     38  N   UNK A   3     -41.090   7.429  -8.221  0.00  0.00    +0.000 NA
ATOM     39  C   UNK A   3     -40.563   8.576  -8.777  0.00  0.00    +0.000 A 
ATOM     40  C   UNK A   3     -40.769   9.561  -7.875  0.00  0.00    +0.000 A 
BRANCH  39  41
ATOM     41  C   UNK A   3     -39.934   8.599 -10.134  0.00  0.00    +0.000 C 
BRANCH  41  42
ATOM     42  C   UNK A   3     -40.946   8.580 -11.277  0.00  0.00    +0.000 C 
BRANCH  42  43
ATOM     43  C   UNK A   3     -42.108   9.509 -10.959  0.00  0.00    +0.000 C 
ATOM     44  O   UNK A   3     -43.124   9.059 -10.411  0.00  0.00    +0.000 OA
ATOM     45  N   UNK A   2     -41.908  10.804 -11.234  0.00  0.00    +0.000 N 
ATOM     46  H   UNK A   2     -40.938  11.118 -11.442  0.00  0.00    +0.000 HD
BRANCH  45  47
ATOM     47  C   UNK A   2     -42.984  11.809 -11.259  0.00  0.00    +0.000 C 
BRANCH  47  48
ATOM     48  C   UNK A   2     -42.728  12.794 -12.399  0.00  0.00    +0.000 C 
ATOM     49  O   UNK A   2     -41.740  12.679 -13.123  0.00  0.00    +0.000 OA
ENDBRANCH  47  48
BRANCH  47  50
ATOM     50  C   UNK A   2     -43.145  12.634  -9.929  0.00  0.00    +0.000 C 
ATOM     51  C   UNK A   2     -43.474  11.725  -8.744  0.00  0.00    +0.000 C 
BRANCH  50  52
ATOM     52  O   UNK A   2     -41.955  13.397  -9.654  0.00  0.00    +0.000 OA
ATOM     53  H   UNK A   2     -42.078  13.907  -8.815  0.00  0.00    +0.000 HD
ENDBRANCH  50  52
ENDBRANCH  47  50
ENDBRANCH  45  47
ENDBRANCH  42  43
BRANCH  42  54
ATOM     54  N   UNK A   3     -40.317   9.012 -12.519  0.00  0.00    +0.000 NA
ATOM     55  H   UNK A   1     -39.319   9.303 -12.511  0.00  0.00    +0.000 HD
ENDBRANCH  42  54
ENDBRANCH  41  42
ENDBRANCH  39  41
ENDBRANCH  25  36
BRANCH  11  56
ATOM     56  N   UNK A   1     -38.522  16.221  -5.422  0.00  0.00    +0.000 NA
ATOM     57  H   UNK A   1     -38.395  16.258  -4.390  0.00  0.00    +0.000 HD
ENDBRANCH  11  56
ENDBRANCH   7  18
ENDBRANCH   6   8
BRANCH   6  58
ATOM     58  CB  GLN A   4     -44.260  12.267   2.390  0.00  0.00    +0.000 C 
BRANCH  58  59
ATOM     59  CG  GLN A   4     -44.178  12.694   3.857  0.00  0.00    +0.000 C 
BRANCH  59  60
ATOM     60  CD  GLN A   4     -45.014  11.837   4.784  0.00  0.00    +0.000 C 
ATOM     61  NE2 GLN A   4     -44.585  11.734   6.032  0.00  0.00    +0.000 N 
ATOM     62 HE21 GLN A   4     -45.104  11.144   6.713  0.00  0.00    +0.000 HD
ATOM     63 HE22 GLN A   4     -43.729  12.243   6.331  0.00  0.00    +0.000 HD
ATOM     64  OE1 GLN A   4     -46.022  11.256   4.377  0.00  0.00    +0.000 OA
ENDBRANCH  59  60
ENDBRANCH  58  59
ENDBRANCH   6  58
ENDBRANCH   2   6
ENDBRANCH   1   4
BRANCH   1  65
ATOM     65  C   UNK A   5     -38.834  12.362   1.208  0.00  0.00    +0.000 C 
ATOM     66  O   UNK A   5     -37.707  12.320   1.742  0.00  0.00    +0.000 OA
ATOM     67  N   LYS A   6     -39.209  13.279   0.306  0.00  0.00    +0.000 N 
ATOM     68  H   LYS A   6     -40.169  13.222  -0.090  0.00  0.00    +0.000 HD
BRANCH  67  69
ATOM     69  CA  LYS A   6     -38.336  14.348  -0.143  0.00  0.00    +0.000 C 
BRANCH  69  70
ATOM     70  C   LYS A   6     -38.685  15.683   0.474  0.00  0.00    +0.000 C 
ATOM     71  O   LYS A   6     -37.811  16.480   0.717  0.00  0.00    +0.000 OA
ATOM     72  N   MET A   7     -39.971  15.950   0.662  0.00  0.00    +0.000 N 
ATOM     73  H   MET A   7     -40.671  15.197   0.505  0.00  0.00    +0.000 HD
BRANCH  72  74
ATOM     74  CA  MET A   7     -40.431  17.268   1.082  0.00  0.00    +0.000 C 
BRANCH  74  75
ATOM     75  C   MET A   7     -41.180  17.227   2.403  0.00  0.00    +0.000 C 
ATOM     76  O   MET A   7     -41.775  18.222   2.795  0.00  0.00    +0.000 OA
ENDBRANCH  74  75
BRANCH  74  77
ATOM     77  CB  MET A   7     -41.309  17.925   0.020  0.00  0.00    +0.000 C 
BRANCH  77  78
ATOM     78  CG  MET A   7     -40.522  18.427  -1.174  0.00  0.00    +0.000 C 
BRANCH  78  79
ATOM     79  SD  MET A   7     -41.499  19.298  -2.444  0.00  0.00    +0.000 S 
ATOM     80  CE  MET A   7     -41.642  20.956  -1.807  0.00  0.00    +0.000 C 
ENDBRANCH  78  79
ENDBRANCH  77  78
ENDBRANCH  74  77
ENDBRANCH  72  74
ENDBRANCH  69  70
BRANCH  69  81
ATOM     81  CB  LYS A   6     -38.391  14.470  -1.668  0.00  0.00    +0.000 C 
BRANCH  81  82
ATOM     82  CG  LYS A   6     -38.308  13.146  -2.390  0.00  0.00    +0.000 C 
BRANCH  82  83
ATOM     83  CD  LYS A   6     -36.895  12.630  -2.437  0.00  0.00    +0.000 C 
BRANCH  83  84
ATOM     84  CE  LYS A   6     -36.552  11.635  -1.330  0.00  0.00    +0.000 C 
BRANCH  84  85
ATOM     85  NZ  LYS A   6     -35.081  11.326  -1.438  0.00  0.00    +0.000 N 
ATOM     86  HZ1 LYS A   6     -34.815  10.649  -0.695  0.00  0.00    +0.000 HD
ATOM     87  HZ2 LYS A   6     -34.534  12.203  -1.321  0.00  0.00    +0.000 HD
ATOM     88  HZ3 LYS A   6     -34.882  10.914  -2.372  0.00  0.00    +0.000 HD
ENDBRANCH  84  85
ENDBRANCH  83  84
ENDBRANCH  82  83
ENDBRANCH  81  82
ENDBRANCH  69  81
ENDBRANCH  67  69
ENDBRANCH   1  65
BRANCH   1  89
ATOM     89  C   UNK A   5     -39.595   9.984   0.987  0.00  0.00    +0.000 C 
BRANCH  89  90
ATOM     90  C   UNK A   5     -39.799   9.930  -0.550  0.00  0.00    +0.000 C 
ATOM     91  O   UNK A   5     -40.712  10.601  -1.124  0.00  0.00    +0.000 OA
BRANCH  90  92
ATOM     92  O   UNK A   5     -39.074   9.126  -1.192  0.00  0.00    +0.000 OA
BRANCH  92  93
ATOM     93 ZN   UNK A   5     -39.330   8.166  -2.942  0.00  0.00    +0.000 Zn
BRANCH  93  94
ATOM     94  N   UNK A   2     -38.192   6.363  -2.389  0.00  0.00    +0.000 N 
ATOM     95  C   UNK A   2     -38.014   6.202  -1.091  0.00  0.00    +0.000 A 
ATOM     96  N   UNK A   2     -37.259   5.134  -0.901  0.00  0.00    +0.000 NA
ATOM     97  C   UNK A   2     -36.941   4.574  -2.119  0.00  0.00    +0.000 A 
ATOM     98  C   UNK A   2     -37.547   5.347  -3.056  0.00  0.00    +0.000 A 
BRANCH  97  99
ATOM     99  C   UNK A   2     -36.064   3.364  -2.248  0.00  0.00    +0.000 C 
BRANCH  99 100
ATOM    100  C   UNK A   2     -34.595   3.653  -1.953  0.00  0.00    +0.000 C 
BRANCH 100 101
ATOM    101  N   UNK A   2     -34.199   4.915  -2.584  0.00  0.00    +0.000 N 
ATOM    102  C   UNK A   1     -33.936   6.008  -1.865  0.00  0.00    +0.000 C 
ATOM    103  O   UNK A   1     -33.853   6.007  -0.625  0.00  0.00    +0.000 OA
ATOM    104  H   UNK A   2     -34.121   4.960  -3.620  0.00  0.00    +0.000 HD
BRANCH 102 105
ATOM    105  C   UNK A   1     -33.686   7.296  -2.633  0.00  0.00    +0.000 C 
BRANCH 105 106
ATOM    106  N   UNK A   1     -32.827   7.084  -3.776  0.00  0.00    +0.000 NA
ATOM    107  H   UNK A   1     -33.242   7.055  -4.729  0.00  0.00    +0.000 HD
ENDBRANCH 105 106
BRANCH 105 108
ATOM    108  C   UNK A   1     -35.003   7.956  -3.048  0.00  0.00    +0.000 C 
BRANCH 108 109
ATOM    109  O   UNK A   1     -34.875   9.371  -3.180  0.00  0.00    +0.000 OA
ATOM    110  H   UNK A   1     -35.746   9.756  -3.449  0.00  0.00    +0.000 HD
ENDBRANCH 108 109
ENDBRANCH 105 108
ENDBRANCH 102 105
ENDBRANCH 100 101
BRANCH 100 111
ATOM    111  C   UNK A   2     -33.694   2.421  -2.232  0.00  0.00    +0.000 C 
ATOM    112  O   UNK A   2     -34.161   1.262  -2.178  0.00  0.00    +0.000 OA
ENDBRANCH 100 111
ENDBRANCH  99 100
ENDBRANCH  97  99
ENDBRANCH  93  94
BRANCH  93 113
ATOM    113  S   UNK A   2     -37.749   9.038  -4.338  0.00  0.00    +0.000 S 
BRANCH 113 114
ATOM    114  C   UNK A   2     -37.848   8.426  -6.028  0.00  0.00    +0.000 C 
BRANCH 114 115
ATOM    115  C   UNK A   2     -36.466   8.242  -6.672  0.00  0.00    +0.000 C 
BRANCH 115 116
ATOM    116  C   UNK A   2     -36.588   7.748  -8.112  0.00  0.00    +0.000 C 
ATOM    117  O   UNK A   2     -37.060   6.629  -8.354  0.00  0.00    +0.000 OA
ATOM    118  N   UNK A   3     -36.097   8.537  -9.056  0.00  0.00    +0.000 N 
ATOM    119  H   UNK A   3     -35.752   9.486  -8.806  0.00  0.00    +0.000 HD
BRANCH 118 120
ATOM    120  C   UNK A   3     -36.036   8.089 -10.437  0.00  0.00    +0.000 C 
BRANCH 120 121
ATOM    121  C   UNK A   3     -35.276   6.765 -10.587  0.00  0.00    +0.000 C 
ATOM    122  O   UNK A   3     -35.753   5.868 -11.248  0.00  0.00    +0.000 OA
ENDBRANCH 120 121
BRANCH 120 123
ATOM    123  C   UNK A   3     -35.458   9.183 -11.344  0.00  0.00    +0.000 C 
BRANCH 123 124
ATOM    124  C   UNK A   3     -35.278   8.918 -12.844  0.00  0.00    +0.000 C 
ATOM    125  C   UNK A   3     -34.326   9.973 -13.448  0.00  0.00    +0.000 C 
ATOM    126  C   UNK A   3     -36.622   8.858 -13.577  0.00  0.00    +0.000 C 
ENDBRANCH 123 124
ENDBRANCH 120 123
ENDBRANCH 118 120
ENDBRANCH 115 116
BRANCH 115 127
ATOM    127  N   UNK A   2     -35.616   9.432  -6.523  0.00  0.00    +0.000 N 
ATOM    128  C   UNK A   1     -34.289   9.327  -6.436  0.00  0.00    +0.000 C 
ATOM    129  O   UNK A   1     -33.699   8.262  -6.535  0.00  0.00    +0.000 OA
ATOM    130  H   UNK A   2     -36.057  10.373  -6.485  0.00  0.00    +0.000 HD
BRANCH 128 131
ATOM    131  C   UNK A   1     -33.496  10.595  -6.265  0.00  0.00    +0.000 C 
BRANCH 131 132
ATOM    132  N   UNK A   1     -32.213  10.417  -6.961  0.00  0.00    +0.000 NA
ATOM    133  H   UNK A   1     -31.328  10.333  -6.420  0.00  0.00    +0.000 HD
ENDBRANCH 131 132
ENDBRANCH 128 131
ENDBRANCH 115 127
ENDBRANCH 114 115
ENDBRANCH 113 114
ENDBRANCH  93 113
ENDBRANCH  92  93
ENDBRANCH  90  92
ENDBRANCH  89  90
ENDBRANCH   1  89
TORSDOF 54
REMARK  Name = ../refined-set-2016/4exs/4exs_pocket.pdb
REMARK  106 active torsions:
REMARK  status: ('A' for Active; 'I' for Inactive)
REMARK    1  A    between atoms: _1  and  _3
REMARK    2  A    between atoms: _3  and  _4
REMARK    3  A    between atoms: _3  and  _6
REMARK    4  A    between atoms: _6  and  _7
REMARK    5  A    between atoms: _10  and  _12
REMARK    6  A    between atoms: _12  and  _13
REMARK    7  A    between atoms: _12  and  _15
REMARK    8  A    between atoms: _15  and  _16
REMARK    9  A    between atoms: _22  and  _24
REMARK   10  A    between atoms: _24  and  _25
REMARK   11  A    between atoms: _24  and  _27
REMARK   12  A    between atoms: _30  and  _32
REMARK   13  A    between atoms: _32  and  _33
REMARK   14  A    between atoms: _36  and  _38
REMARK   15  A    between atoms: _38  and  _39
REMARK   16  A    between atoms: _38  and  _41
REMARK   17  A    between atoms: _41  and  _42
REMARK   18  A    between atoms: _44  and  _46
REMARK   19  A    between atoms: _46  and  _47
REMARK   20  A    between atoms: _46  and  _49
REMARK   21  A    between atoms: _49  and  _50
REMARK   22  A    between atoms: _60  and  _62
REMARK   23  A    between atoms: _79  and  _80
REMARK   24  A    between atoms: _88  and  _90
REMARK   25  A    between atoms: _90  and  _91
REMARK   26  A    between atoms: _90  and  _93
REMARK   27  A    between atoms: _93  and  _94
REMARK   28  A    between atoms: _94  and  _95
REMARK   29  A    between atoms: _100  and  _102
REMARK   30  A    between atoms: _102  and  _103
REMARK   31  A    between atoms: _102  and  _105
REMARK   32  A    between atoms: _105  and  _106
REMARK   33  A    between atoms: _106  and  _108
REMARK   34  A    between atoms: _108  and  ZN_261
REMARK   35  A    between atoms: _109  and  _111
REMARK   36  A    between atoms: _111  and  _112
REMARK   37  A    between atoms: _111  and  _114
REMARK   38  A    between atoms: _114  and  _115
REMARK   39  A    between atoms: _115  and  _116
REMARK   40  A    between atoms: _116  and  _117
REMARK   41  A    between atoms: _117  and  _118
REMARK   42  A    between atoms: _122  and  _124
REMARK   43  A    between atoms: _124  and  _125
REMARK   44  A    between atoms: _124  and  _127
REMARK   45  A    between atoms: _127  and  _128
REMARK   46  A    between atoms: _128  and  _129
REMARK   47  A    between atoms: _131  and  _133
REMARK   48  A    between atoms: _133  and  _134
REMARK   49  A    between atoms: _133  and  _136
REMARK   50  A    between atoms: _136  and  _137
REMARK   51  A    between atoms: _141  and  ZN_260
REMARK   52  A    between atoms: _142  and  _144
REMARK   53  A    between atoms: _144  and  _145
REMARK   54  A    between atoms: _144  and  _147
REMARK   55  A    between atoms: _147  and  _148
REMARK   56  A    between atoms: _151  and  _153
REMARK   57  A    between atoms: _153  and  _154
REMARK   58  A    between atoms: _156  and  _158
REMARK   59  A    between atoms: _158  and  _159
REMARK   60  A    between atoms: _158  and  _161
REMARK   61  A    between atoms: _161  and  _162
REMARK   62  A    between atoms: _162  and  ZN_261
REMARK   63  A    between atoms: _163  and  _165
REMARK   64  A    between atoms: _165  and  _166
REMARK   65  A    between atoms: _165  and  _168
REMARK   66  A    between atoms: _168  and  _169
REMARK   67  A    between atoms: _172  and  _174
REMARK   68  A    between atoms: _174  and  _175
REMARK   69  A    between atoms: _174  and  _177
REMARK   70  A    between atoms: _177  and  _178
REMARK   71  A    between atoms: _178  and  _179
REMARK   72  A    between atoms: _179  and  _180
REMARK   73  A    between atoms: _180  and  _181
REMARK   74  A    between atoms: _185  and  _187
REMARK   75  A    between atoms: _187  and  _188
REMARK   76  A    between atoms: _187  and  _190
REMARK   77  A    between atoms: _190  and  _191
REMARK   78  A    between atoms: _193  and  _195
REMARK   79  A    between atoms: _195  and  _196
REMARK   80  A    between atoms: _195  and  _198
REMARK   81  A    between atoms: _198  and  _199
REMARK   82  A    between atoms: _202  and  _204
REMARK   83  A    between atoms: _204  and  _205
REMARK   84  A    between atoms: _207  and  _209
REMARK   85  A    between atoms: _209  and  _210
REMARK   86  A    between atoms: _209  and  _212
REMARK   87  A    between atoms: _212  and  _213
REMARK   88  A    between atoms: _218  and  _220
REMARK   89  A    between atoms: _220  and  _221
REMARK   90  A    between atoms: _220  and  _223
REMARK   91  A    between atoms: _223  and  _224
REMARK   92  A    between atoms: _227  and  _229
REMARK   93  A    between atoms: _229  and  _230
REMARK   94  A    between atoms: _232  and  _234
REMARK   95  A    between atoms: _234  and  _235
REMARK   96  A    between atoms: _234  and  _237
REMARK   97  A    between atoms: _237  and  _238
REMARK   98  A    between atoms: _241  and  _243
REMARK   99  A    between atoms: _243  and  _244
REMARK  100  A    between atoms: _243  and  _246
REMARK  101  A    between atoms: _246  and  _247
REMARK  102  A    between atoms: _249  and  _251
REMARK  103  A    between atoms: _251  and  _252
REMARK  104  A    between atoms: _251  and  _254
REMARK  105  A    between atoms: _254  and  _255
REMARK  106  A    between atoms: _259  and  ZN_261
REMARK                            x       y       z     vdW  Elec       q    Type
REMARK                         _______ _______ _______ _____ _____    ______ ____
ROOT
ATOM      1  CG  LYS A   1     -35.841   1.762  -8.859  0.00  0.00    -0.000 C 
ENDROOT
BRANCH   1   2
ATOM      2  CB  LYS A   1     -34.532   1.077  -8.596  0.00  0.00    +0.025 C 
BRANCH   2   3
ATOM      3  CA  LYS A   1     -33.342   2.016  -8.430  0.00  0.00    +0.133 C 
BRANCH   3   4
ATOM      4  N   LYS A   1     -33.371   3.145  -9.395  0.00  0.00    -0.239 NA
ATOM      5  H   LYS A   1     -33.392   2.925 -10.411  0.00  0.00    +0.142 HD
ENDBRANCH   3   4
BRANCH   3   6
ATOM      6  C   LYS A   1     -32.079   1.251  -8.710  0.00  0.00    +0.224 C 
ATOM      7  O   LYS A   1     -31.561   1.353  -9.814  0.00  0.00    -0.287 OA
ENDBRANCH   3   6
ENDBRANCH   2   3
ENDBRANCH   1   2
BRANCH   1   8
ATOM      8  CD  LYS A   1     -36.353   2.571  -7.675  0.00  0.00    -0.024 C 
BRANCH   8   9
ATOM      9  CE  LYS A   1     -37.823   3.026  -7.907  0.00  0.00    -0.086 C 
BRANCH   9  10
ATOM     10  NZ  LYS A   1     -38.235   4.217  -7.060  0.00  0.00    +0.380 N 
ATOM     11  HZ1 LYS A   1     -38.141   3.974  -6.053  0.00  0.00    -0.089 HD
ATOM     12  HZ2 LYS A   1     -39.224   4.463  -7.268  0.00  0.00    -0.089 HD
ATOM     13  HZ3 LYS A   1     -37.621   5.027  -7.281  0.00  0.00    -0.089 HD
ENDBRANCH   9  10
ENDBRANCH   8   9
ENDBRANCH   1   8
TORSDOF 7
REMARK  Name = ../refined-set-2016/4exs/4exs_pocket.pdb
REMARK  106 active torsions:
REMARK  status: ('A' for Active; 'I' for Inactive)
REMARK    1  A    between atoms: _1  and  _3
REMARK    2  A    between atoms: _3  and  _4
REMARK    3  A    between atoms: _3  and  _6
REMARK    4  A    between atoms: _6  and  _7
REMARK    5  A    between atoms: _10  and  _12
REMARK    6  A    between atoms: _12  and  _13
REMARK    7  A    between atoms: _12  and  _15
REMARK    8  A    between atoms: _15  and  _16
REMARK    9  A    between atoms: _22  and  _24
REMARK   10  A    between atoms: _24  and  _25
REMARK   11  A    between atoms: _24  and  _27
REMARK   12  A    between atoms: _30  and  _32
REMARK   13  A    between atoms: _32  and  _33
REMARK   14  A    between atoms: _36  and  _38
REMARK   15  A    between atoms: _38  and  _39
REMARK   16  A    between atoms: _38  and  _41
REMARK   17  A    between atoms: _41  and  _42
REMARK   18  A    between atoms: _44  and  _46
REMARK   19  A    between atoms: _46  and  _47
REMARK   20  A    between atoms: _46  and  _49
REMARK   21  A    between atoms: _49  and  _50
REMARK   22  A    between atoms: _60  and  _62
REMARK   23  A    between atoms: _79  and  _80
REMARK   24  A    between atoms: _88  and  _90
REMARK   25  A    between atoms: _90  and  _91
REMARK   26  A    between atoms: _90  and  _93
REMARK   27  A    between atoms: _93  and  _94
REMARK   28  A    between atoms: _94  and  _95
REMARK   29  A    between atoms: _100  and  _102
REMARK   30  A    between atoms: _102  and  _103
REMARK   31  A    between atoms: _102  and  _105
REMARK   32  A    between atoms: _105  and  _106
REMARK   33  A    between atoms: _106  and  _108
REMARK   34  A    between atoms: _108  and  ZN_261
REMARK   35  A    between atoms: _109  and  _111
REMARK   36  A    between atoms: _111  and  _112
REMARK   37  A    between atoms: _111  and  _114
REMARK   38  A    between atoms: _114  and  _115
REMARK   39  A    between atoms: _115  and  _116
REMARK   40  A    between atoms: _116  and  _117
REMARK   41  A    between atoms: _117  and  _118
REMARK   42  A    between atoms: _122  and  _124
REMARK   43  A    between atoms: _124  and  _125
REMARK   44  A    between atoms: _124  and  _127
REMARK   45  A    between atoms: _127  and  _128
REMARK   46  A    between atoms: _128  and  _129
REMARK   47  A    between atoms: _131  and  _133
REMARK   48  A    between atoms: _133  and  _134
REMARK   49  A    between atoms: _133  and  _136
REMARK   50  A    between atoms: _136  and  _137
REMARK   51  A    between atoms: _141  and  ZN_260
REMARK   52  A    between atoms: _142  and  _144
REMARK   53  A    between atoms: _144  and  _145
REMARK   54  A    between atoms: _144  and  _147
REMARK   55  A    between atoms: _147  and  _148
REMARK   56  A    between atoms: _151  and  _153
REMARK   57  A    between atoms: _153  and  _154
REMARK   58  A    between atoms: _156  and  _158
REMARK   59  A    between atoms: _158  and  _159
REMARK   60  A    between atoms: _158  and  _161
REMARK   61  A    between atoms: _161  and  _162
REMARK   62  A    between atoms: _162  and  ZN_261
REMARK   63  A    between atoms: _163  and  _165
REMARK   64  A    between atoms: _165  and  _166
REMARK   65  A    between atoms: _165  and  _168
REMARK   66  A    between atoms: _168  and  _169
REMARK   67  A    between atoms: _172  and  _174
REMARK   68  A    between atoms: _174  and  _175
REMARK   69  A    between atoms: _174  and  _177
REMARK   70  A    between atoms: _177  and  _178
REMARK   71  A    between atoms: _178  and  _179
REMARK   72  A    between atoms: _179  and  _180
REMARK   73  A    between atoms: _180  and  _181
REMARK   74  A    between atoms: _185  and  _187
REMARK   75  A    between atoms: _187  and  _188
REMARK   76  A    between atoms: _187  and  _190
REMARK   77  A    between atoms: _190  and  _191
REMARK   78  A    between atoms: _193  and  _195
REMARK   79  A    between atoms: _195  and  _196
REMARK   80  A    between atoms: _195  and  _198
REMARK   81  A    between atoms: _198  and  _199
REMARK   82  A    between atoms: _202  and  _204
REMARK   83  A    between atoms: _204  and  _205
REMARK   84  A    between atoms: _207  and  _209
REMARK   85  A    between atoms: _209  and  _210
REMARK   86  A    between atoms: _209  and  _212
REMARK   87  A    between atoms: _212  and  _213
REMARK   88  A    between atoms: _218  and  _220
REMARK   89  A    between atoms: _220  and  _221
REMARK   90  A    between atoms: _220  and  _223
REMARK   91  A    between atoms: _223  and  _224
REMARK   92  A    between atoms: _227  and  _229
REMARK   93  A    between atoms: _229  and  _230
REMARK   94  A    between atoms: _232  and  _234
REMARK   95  A    between atoms: _234  and  _235
REMARK   96  A    between atoms: _234  and  _237
REMARK   97  A    between atoms: _237  and  _238
REMARK   98  A    between atoms: _241  and  _243
REMARK   99  A    between atoms: _243  and  _244
REMARK  100  A    between atoms: _243  and  _246
REMARK  101  A    between atoms: _246  and  _247
REMARK  102  A    between atoms: _249  and  _251
REMARK  103  A    between atoms: _251  and  _252
REMARK  104  A    between atoms: _251  and  _254
REMARK  105  A    between atoms: _254  and  _255
REMARK  106  A    between atoms: _259  and  ZN_261
REMARK                            x       y       z     vdW  Elec       q    Type
REMARK                         _______ _______ _______ _____ _____    ______ ____
ROOT
ATOM      1  CA  ASN A   4     -45.110   2.745  -6.678  0.00  0.00    +0.158 C 
ENDROOT
BRANCH   1   2
ATOM      2  C   ASN A   4     -44.975   3.642  -7.907  0.00  0.00    +0.241 C 
ATOM      3  O   ASN A   4     -44.078   4.496  -7.993  0.00  0.00    -0.273 OA
ATOM      4  N   LEU A   5     -45.831   3.354  -8.880  0.00  0.00    -0.297 N 
ATOM      5  H   LEU A   5     -46.546   2.620  -8.700  0.00  0.00    +0.150 HD
BRANCH   4   6
ATOM      6  CA  LEU A   5     -45.830   3.998 -10.173  0.00  0.00    +0.149 C 
BRANCH   6   7
ATOM      7  C   LEU A   5     -47.091   4.843 -10.334  0.00  0.00    +0.241 C 
ATOM      8  N   GLY A   6     -47.760   5.139  -9.220  0.00  0.00    -0.295 N 
ATOM      9  H   GLY A   6     -47.380   4.824  -8.305  0.00  0.00    +0.150 HD
ATOM     10  O   LEU A   5     -47.465   5.190 -11.452  0.00  0.00    -0.273 OA
BRANCH   8  11
ATOM     11  CA  GLY A   6     -49.013   5.893  -9.246  0.00  0.00    +0.176 C 
BRANCH  11  12
ATOM     12  C   GLY A   6     -48.863   7.264  -9.899  0.00  0.00    +0.243 C 
ATOM     13  N   ASP A   7     -47.737   7.933  -9.628  0.00  0.00    -0.297 N 
ATOM     14  H   ASP A   7     -47.043   7.514  -8.976  0.00  0.00    +0.150 HD
ATOM     15  O   GLY A   6     -49.747   7.709 -10.647  0.00  0.00    -0.273 OA
BRANCH  13  16
ATOM     16  CA  ASP A   7     -47.455   9.248 -10.229  0.00  0.00    +0.148 C 
BRANCH  16  17
ATOM     17  C   ASP A   7     -46.575   9.188 -11.502  0.00  0.00    +0.227 C 
ATOM     18  O   ASP A   7     -46.239  10.222 -12.061  0.00  0.00    -0.286 OA
ENDBRANCH  16  17
BRANCH  16  19
ATOM     19  CB  ASP A   7     -46.852  10.202  -9.178  0.00  0.00    +0.142 C 
BRANCH  19  20
ATOM     20  CG  ASP A   7     -47.916  10.830  -8.251  0.00  0.00    +0.367 C 
ATOM     21  OD2 ASP A   7     -47.545  11.334  -7.164  0.00  0.00    -0.246 OA
ATOM     22  OD1 ASP A   7     -49.122  10.844  -8.610  0.00  0.00    -0.246 OA
ENDBRANCH  19  20
ENDBRANCH  16  19
ENDBRANCH  13  16
ENDBRANCH  11  12
ENDBRANCH   8  11
ENDBRANCH   6   7
BRANCH   6  23
ATOM     23  CB  LEU A   5     -45.816   2.916 -11.252  0.00  0.00    +0.029 C 
BRANCH  23  24
ATOM     24  CG  LEU A   5     -44.498   2.169 -11.426  0.00  0.00    +0.002 C 
ATOM     25  CD2 LEU A   5     -44.745   0.781 -11.972  0.00  0.00    +0.000 C 
ATOM     26  CD1 LEU A   5     -43.536   2.947 -12.314  0.00  0.00    +0.000 C 
ENDBRANCH  23  24
ENDBRANCH   6  23
ENDBRANCH   4   6
ENDBRANCH   1   2
BRANCH   1  28
ATOM     27  C   GLY A   3     -43.318   1.249  -7.422  0.00  0.00    +0.243 C 
ATOM     28  N   ASN A   4     -43.848   2.030  -6.486  0.00  0.00    -0.297 N 
ATOM     29  H   ASN A   4     -43.346   2.137  -5.582  0.00  0.00    +0.150 HD
ATOM     30  O   GLY A   3     -43.846   1.061  -8.509  0.00  0.00    -0.273 OA
BRANCH  27  31
ATOM     31  CA  GLY A   3     -42.013   0.563  -7.073  0.00  0.00    +0.176 C 
BRANCH  31  33
ATOM     32  C   LEU A   2     -40.708   0.983  -9.094  0.00  0.00    +0.241 C 
ATOM     33  N   GLY A   3     -41.266   0.115  -8.249  0.00  0.00    -0.295 N 
ATOM     34  H   GLY A   3     -41.168  -0.904  -8.430  0.00  0.00    +0.150 HD
ATOM     35  O   LEU A   2     -40.834   2.213  -8.974  0.00  0.00    -0.273 OA
BRANCH  32  36
ATOM     36  CA  LEU A   2     -39.914   0.385 -10.265  0.00  0.00    +0.149 C 
BRANCH  36  39
ATOM     37  C   SER A   1     -39.226  -1.923  -9.785  0.00  0.00    +0.241 C 
ATOM     38  O   SER A   1     -38.205  -1.570  -9.192  0.00  0.00    -0.274 OA
ATOM     39  N   LEU A   2     -40.076  -1.065 -10.350  0.00  0.00    -0.297 N 
ATOM     40  H   LEU A   2     -40.890  -1.444 -10.874  0.00  0.00    +0.150 HD
BRANCH  37  41
ATOM     41  CA  SER A   1     -39.566  -3.415  -9.927  0.00  0.00    +0.174 C 
BRANCH  41  42
ATOM     42  N   SER A   1     -38.494  -4.211  -9.351  0.00  0.00    -0.236 NA
ATOM     43  H   SER A   1     -37.823  -3.749  -8.704  0.00  0.00    +0.142 HD
ENDBRANCH  41  42
BRANCH  41  44
ATOM     44  CB  SER A   1     -40.907  -3.745  -9.247  0.00  0.00    +0.163 C 
BRANCH  44  45
ATOM     45  OG  SER A   1     -41.197  -2.855  -8.170  0.00  0.00    -0.380 OA
ATOM     46  H   SER A   1     -42.065  -3.103  -7.763  0.00  0.00    +0.211 HD
ENDBRANCH  44  45
ENDBRANCH  41  44
ENDBRANCH  37  41
ENDBRANCH  36  39
BRANCH  36  47
ATOM     47  CB  LEU A   2     -40.350   1.043 -11.577  0.00  0.00    +0.029 C 
BRANCH  47  48
ATOM     48  CG  LEU A   2     -39.428   0.843 -12.774  0.00  0.00    +0.002 C 
ATOM     49  CD2 LEU A   2     -38.091   1.529 -12.534  0.00  0.00    +0.000 C 
ATOM     50  CD1 LEU A   2     -40.085   1.383 -14.007  0.00  0.00    +0.000 C 
ENDBRANCH  47  48
ENDBRANCH  36  47
ENDBRANCH  32  36
ENDBRANCH  31  33
ENDBRANCH  27  31
ENDBRANCH   1  28
BRANCH   1  51
ATOM     51  CB  ASN A   4     -45.506   3.525  -5.398  0.00  0.00    +0.114 C 
BRANCH  51  52
ATOM     52  CG  ASN A   4     -46.501   4.675  -5.661  0.00  0.00    +0.222 C 
ATOM     53  ND2 ASN A   4     -46.122   5.904  -5.255  0.00  0.00    -0.329 N 
ATOM     54 HD21 ASN A   4     -45.184   6.044  -4.828  0.00  0.00    +0.145 HD
ATOM     55 HD22 ASN A   4     -46.768   6.711  -5.369  0.00  0.00    +0.145 HD
ATOM     56  OD1 ASN A   4     -47.604   4.456  -6.174  0.00  0.00    -0.275 OA
ENDBRANCH  51  52
ENDBRANCH   1  51
TORSDOF 24
REMARK  Name = ../refined-set-2016/4exs/4exs_pocket.pdb
REMARK  106 active torsions:
REMARK  status: ('A' for Active; 'I' for Inactive)
REMARK    1  A    between atoms: _1  and  _3
REMARK    2  A    between atoms: _3  and  _4
REMARK    3  A    between atoms: _3  and  _6
REMARK    4  A    between atoms: _6  and  _7
REMARK    5  A    between atoms: _10  and  _12
REMARK    6  A    between atoms: _12  and  _13
REMARK    7  A    between atoms: _12  and  _15
REMARK    8  A    between atoms: _15  and  _16
REMARK    9  A    between atoms: _22  and  _24
REMARK   10  A    between atoms: _24  and  _25
REMARK   11  A    between atoms: _24  and  _27
REMARK   12  A    between atoms: _30  and  _32
REMARK   13  A    between atoms: _32  and  _33
REMARK   14  A    between atoms: _36  and  _38
REMARK   15  A    between atoms: _38  and  _39
REMARK   16  A    between atoms: _38  and  _41
REMARK   17  A    between atoms: _41  and  _42
REMARK   18  A    between atoms: _44  and  _46
REMARK   19  A    between atoms: _46  and  _47
REMARK   20  A    between atoms: _46  and  _49
REMARK   21  A    between atoms: _49  and  _50
REMARK   22  A    between atoms: _60  and  _62
REMARK   23  A    between atoms: _79  and  _80
REMARK   24  A    between atoms: _88  and  _90
REMARK   25  A    between atoms: _90  and  _91
REMARK   26  A    between atoms: _90  and  _93
REMARK   27  A    between atoms: _93  and  _94
REMARK   28  A    between atoms: _94  and  _95
REMARK   29  A    between atoms: _100  and  _102
REMARK   30  A    between atoms: _102  and  _103
REMARK   31  A    between atoms: _102  and  _105
REMARK   32  A    between atoms: _105  and  _106
REMARK   33  A    between atoms: _106  and  _108
REMARK   34  A    between atoms: _108  and  ZN_261
REMARK   35  A    between atoms: _109  and  _111
REMARK   36  A    between atoms: _111  and  _112
REMARK   37  A    between atoms: _111  and  _114
REMARK   38  A    between atoms: _114  and  _115
REMARK   39  A    between atoms: _115  and  _116
REMARK   40  A    between atoms: _116  and  _117
REMARK   41  A    between atoms: _117  and  _118
REMARK   42  A    between atoms: _122  and  _124
REMARK   43  A    between atoms: _124  and  _125
REMARK   44  A    between atoms: _124  and  _127
REMARK   45  A    between atoms: _127  and  _128
REMARK   46  A    between atoms: _128  and  _129
REMARK   47  A    between atoms: _131  and  _133
REMARK   48  A    between atoms: _133  and  _134
REMARK   49  A    between atoms: _133  and  _136
REMARK   50  A    between atoms: _136  and  _137
REMARK   51  A    between atoms: _141  and  ZN_260
REMARK   52  A    between atoms: _142  and  _144
REMARK   53  A    between atoms: _144  and  _145
REMARK   54  A    between atoms: _144  and  _147
REMARK   55  A    between atoms: _147  and  _148
REMARK   56  A    between atoms: _151  and  _153
REMARK   57  A    between atoms: _153  and  _154
REMARK   58  A    between atoms: _156  and  _158
REMARK   59  A    between atoms: _158  and  _159
REMARK   60  A    between atoms: _158  and  _161
REMARK   61  A    between atoms: _161  and  _162
REMARK   62  A    between atoms: _162  and  ZN_261
REMARK   63  A    between atoms: _163  and  _165
REMARK   64  A    between atoms: _165  and  _166
REMARK   65  A    between atoms: _165  and  _168
REMARK   66  A    between atoms: _168  and  _169
REMARK   67  A    between atoms: _172  and  _174
REMARK   68  A    between atoms: _174  and  _175
REMARK   69  A    between atoms: _174  and  _177
REMARK   70  A    between atoms: _177  and  _178
REMARK   71  A    between atoms: _178  and  _179
REMARK   72  A    between atoms: _179  and  _180
REMARK   73  A    between atoms: _180  and  _181
REMARK   74  A    between atoms: _185  and  _187
REMARK   75  A    between atoms: _187  and  _188
REMARK   76  A    between atoms: _187  and  _190
REMARK   77  A    between atoms: _190  and  _191
REMARK   78  A    between atoms: _193  and  _195
REMARK   79  A    between atoms: _195  and  _196
REMARK   80  A    between atoms: _195  and  _198
REMARK   81  A    between atoms: _198  and  _199
REMARK   82  A    between atoms: _202  and  _204
REMARK   83  A    between atoms: _204  and  _205
REMARK   84  A    between atoms: _207  and  _209
REMARK   85  A    between atoms: _209  and  _210
REMARK   86  A    between atoms: _209  and  _212
REMARK   87  A    between atoms: _212  and  _213
REMARK   88  A    between atoms: _218  and  _220
REMARK   89  A    between atoms: _220  and  _221
REMARK   90  A    between atoms: _220  and  _223
REMARK   91  A    between atoms: _223  and  _224
REMARK   92  A    between atoms: _227  and  _229
REMARK   93  A    between atoms: _229  and  _230
REMARK   94  A    between atoms: _232  and  _234
REMARK   95  A    between atoms: _234  and  _235
REMARK   96  A    between atoms: _234  and  _237
REMARK   97  A    between atoms: _237  and  _238
REMARK   98  A    between atoms: _241  and  _243
REMARK   99  A    between atoms: _243  and  _244
REMARK  100  A    between atoms: _243  and  _246
REMARK  101  A    between atoms: _246  and  _247
REMARK  102  A    between atoms: _249  and  _251
REMARK  103  A    between atoms: _251  and  _252
REMARK  104  A    between atoms: _251  and  _254
REMARK  105  A    between atoms: _254  and  _255
REMARK  106  A    between atoms: _259  and  ZN_261
REMARK                            x       y       z     vdW  Elec       q    Type
REMARK                         _______ _______ _______ _____ _____    ______ ____
ROOT
ATOM      1  O   HOH     1     -47.286  11.149   1.880  0.00  0.00    +0.000 OA
ENDROOT
TORSDOF 0
REMARK  Name = ../refined-set-2016/4exs/4exs_pocket.pdb
REMARK  106 active torsions:
REMARK  status: ('A' for Active; 'I' for Inactive)
REMARK    1  A    between atoms: _1  and  _3
REMARK    2  A    between atoms: _3  and  _4
REMARK    3  A    between atoms: _3  and  _6
REMARK    4  A    between atoms: _6  and  _7
REMARK    5  A    between atoms: _10  and  _12
REMARK    6  A    between atoms: _12  and  _13
REMARK    7  A    between atoms: _12  and  _15
REMARK    8  A    between atoms: _15  and  _16
REMARK    9  A    between atoms: _22  and  _24
REMARK   10  A    between atoms: _24  and  _25
REMARK   11  A    between atoms: _24  and  _27
REMARK   12  A    between atoms: _30  and  _32
REMARK   13  A    between atoms: _32  and  _33
REMARK   14  A    between atoms: _36  and  _38
REMARK   15  A    between atoms: _38  and  _39
REMARK   16  A    between atoms: _38  and  _41
REMARK   17  A    between atoms: _41  and  _42
REMARK   18  A    between atoms: _44  and  _46
REMARK   19  A    between atoms: _46  and  _47
REMARK   20  A    between atoms: _46  and  _49
REMARK   21  A    between atoms: _49  and  _50
REMARK   22  A    between atoms: _60  and  _62
REMARK   23  A    between atoms: _79  and  _80
REMARK   24  A    between atoms: _88  and  _90
REMARK   25  A    between atoms: _90  and  _91
REMARK   26  A    between atoms: _90  and  _93
REMARK   27  A    between atoms: _93  and  _94
REMARK   28  A    between atoms: _94  and  _95
REMARK   29  A    between atoms: _100  and  _102
REMARK   30  A    between atoms: _102  and  _103
REMARK   31  A    between atoms: _102  and  _105
REMARK   32  A    between atoms: _105  and  _106
REMARK   33  A    between atoms: _106  and  _108
REMARK   34  A    between atoms: _108  and  ZN_261
REMARK   35  A    between atoms: _109  and  _111
REMARK   36  A    between atoms: _111  and  _112
REMARK   37  A    between atoms: _111  and  _114
REMARK   38  A    between atoms: _114  and  _115
REMARK   39  A    between atoms: _115  and  _116
REMARK   40  A    between atoms: _116  and  _117
REMARK   41  A    between atoms: _117  and  _118
REMARK   42  A    between atoms: _122  and  _124
REMARK   43  A    between atoms: _124  and  _125
REMARK   44  A    between atoms: _124  and  _127
REMARK   45  A    between atoms: _127  and  _128
REMARK   46  A    between atoms: _128  and  _129
REMARK   47  A    between atoms: _131  and  _133
REMARK   48  A    between atoms: _133  and  _134
REMARK   49  A    between atoms: _133  and  _136
REMARK   50  A    between atoms: _136  and  _137
REMARK   51  A    between atoms: _141  and  ZN_260
REMARK   52  A    between atoms: _142  and  _144
REMARK   53  A    between atoms: _144  and  _145
REMARK   54  A    between atoms: _144  and  _147
REMARK   55  A    between atoms: _147  and  _148
REMARK   56  A    between atoms: _151  and  _153
REMARK   57  A    between atoms: _153  and  _154
REMARK   58  A    between atoms: _156  and  _158
REMARK   59  A    between atoms: _158  and  _159
REMARK   60  A    between atoms: _158  and  _161
REMARK   61  A    between atoms: _161  and  _162
REMARK   62  A    between atoms: _162  and  ZN_261
REMARK   63  A    between atoms: _163  and  _165
REMARK   64  A    between atoms: _165  and  _166
REMARK   65  A    between atoms: _165  and  _168
REMARK   66  A    between atoms: _168  and  _169
REMARK   67  A    between atoms: _172  and  _174
REMARK   68  A    between atoms: _174  and  _175
REMARK   69  A    between atoms: _174  and  _177
REMARK   70  A    between atoms: _177  and  _178
REMARK   71  A    between atoms: _178  and  _179
REMARK   72  A    between atoms: _179  and  _180
REMARK   73  A    between atoms: _180  and  _181
REMARK   74  A    between atoms: _185  and  _187
REMARK   75  A    between atoms: _187  and  _188
REMARK   76  A    between atoms: _187  and  _190
REMARK   77  A    between atoms: _190  and  _191
REMARK   78  A    between atoms: _193  and  _195
REMARK   79  A    between atoms: _195  and  _196
REMARK   80  A    between atoms: _195  and  _198
REMARK   81  A    between atoms: _198  and  _199
REMARK   82  A    between atoms: _202  and  _204
REMARK   83  A    between atoms: _204  and  _205
REMARK   84  A    between atoms: _207  and  _209
REMARK   85  A    between atoms: _209  and  _210
REMARK   86  A    between atoms: _209  and  _212
REMARK   87  A    between atoms: _212  and  _213
REMARK   88  A    between atoms: _218  and  _220
REMARK   89  A    between atoms: _220  and  _221
REMARK   90  A    between atoms: _220  and  _223
REMARK   91  A    between atoms: _223  and  _224
REMARK   92  A    between atoms: _227  and  _229
REMARK   93  A    between atoms: _229  and  _230
REMARK   94  A    between atoms: _232  and  _234
REMARK   95  A    between atoms: _234  and  _235
REMARK   96  A    between atoms: _234  and  _237
REMARK   97  A    between atoms: _237  and  _238
REMARK   98  A    between atoms: _241  and  _243
REMARK   99  A    between atoms: _243  and  _244
REMARK  100  A    between atoms: _243  and  _246
REMARK  101  A    between atoms: _246  and  _247
REMARK  102  A    between atoms: _249  and  _251
REMARK  103  A    between atoms: _251  and  _252
REMARK  104  A    between atoms: _251  and  _254
REMARK  105  A    between atoms: _254  and  _255
REMARK  106  A    between atoms: _259  and  ZN_261
REMARK                            x       y       z     vdW  Elec       q    Type
REMARK                         _______ _______ _______ _____ _____    ______ ____
ROOT
ATOM      1  O   HOH     1     -34.940   4.791  -5.426  0.00  0.00    +0.000 OA
ENDROOT
TORSDOF 0
REMARK  Name = ../refined-set-2016/4exs/4exs_pocket.pdb
REMARK  106 active torsions:
REMARK  status: ('A' for Active; 'I' for Inactive)
REMARK    1  A    between atoms: _1  and  _3
REMARK    2  A    between atoms: _3  and  _4
REMARK    3  A    between atoms: _3  and  _6
REMARK    4  A    between atoms: _6  and  _7
REMARK    5  A    between atoms: _10  and  _12
REMARK    6  A    between atoms: _12  and  _13
REMARK    7  A    between atoms: _12  and  _15
REMARK    8  A    between atoms: _15  and  _16
REMARK    9  A    between atoms: _22  and  _24
REMARK   10  A    between atoms: _24  and  _25
REMARK   11  A    between atoms: _24  and  _27
REMARK   12  A    between atoms: _30  and  _32
REMARK   13  A    between atoms: _32  and  _33
REMARK   14  A    between atoms: _36  and  _38
REMARK   15  A    between atoms: _38  and  _39
REMARK   16  A    between atoms: _38  and  _41
REMARK   17  A    between atoms: _41  and  _42
REMARK   18  A    between atoms: _44  and  _46
REMARK   19  A    between atoms: _46  and  _47
REMARK   20  A    between atoms: _46  and  _49
REMARK   21  A    between atoms: _49  and  _50
REMARK   22  A    between atoms: _60  and  _62
REMARK   23  A    between atoms: _79  and  _80
REMARK   24  A    between atoms: _88  and  _90
REMARK   25  A    between atoms: _90  and  _91
REMARK   26  A    between atoms: _90  and  _93
REMARK   27  A    between atoms: _93  and  _94
REMARK   28  A    between atoms: _94  and  _95
REMARK   29  A    between atoms: _100  and  _102
REMARK   30  A    between atoms: _102  and  _103
REMARK   31  A    between atoms: _102  and  _105
REMARK   32  A    between atoms: _105  and  _106
REMARK   33  A    between atoms: _106  and  _108
REMARK   34  A    between atoms: _108  and  ZN_261
REMARK   35  A    between atoms: _109  and  _111
REMARK   36  A    between atoms: _111  and  _112
REMARK   37  A    between atoms: _111  and  _114
REMARK   38  A    between atoms: _114  and  _115
REMARK   39  A    between atoms: _115  and  _116
REMARK   40  A    between atoms: _116  and  _117
REMARK   41  A    between atoms: _117  and  _118
REMARK   42  A    between atoms: _122  and  _124
REMARK   43  A    between atoms: _124  and  _125
REMARK   44  A    between atoms: _124  and  _127
REMARK   45  A    between atoms: _127  and  _128
REMARK   46  A    between atoms: _128  and  _129
REMARK   47  A    between atoms: _131  and  _133
REMARK   48  A    between atoms: _133  and  _134
REMARK   49  A    between atoms: _133  and  _136
REMARK   50  A    between atoms: _136  and  _137
REMARK   51  A    between atoms: _141  and  ZN_260
REMARK   52  A    between atoms: _142  and  _144
REMARK   53  A    between atoms: _144  and  _145
REMARK   54  A    between atoms: _144  and  _147
REMARK   55  A    between atoms: _147  and  _148
REMARK   56  A    between atoms: _151  and  _153
REMARK   57  A    between atoms: _153  and  _154
REMARK   58  A    between atoms: _156  and  _158
REMARK   59  A    between atoms: _158  and  _159
REMARK   60  A    between atoms: _158  and  _161
REMARK   61  A    between atoms: _161  and  _162
REMARK   62  A    between atoms: _162  and  ZN_261
REMARK   63  A    between atoms: _163  and  _165
REMARK   64  A    between atoms: _165  and  _166
REMARK   65  A    between atoms: _165  and  _168
REMARK   66  A    between atoms: _168  and  _169
REMARK   67  A    between atoms: _172  and  _174
REMARK   68  A    between atoms: _174  and  _175
REMARK   69  A    between atoms: _174  and  _177
REMARK   70  A    between atoms: _177  and  _178
REMARK   71  A    between atoms: _178  and  _179
REMARK   72  A    between atoms: _179  and  _180
REMARK   73  A    between atoms: _180  and  _181
REMARK   74  A    between atoms: _185  and  _187
REMARK   75  A    between atoms: _187  and  _188
REMARK   76  A    between atoms: _187  and  _190
REMARK   77  A    between atoms: _190  and  _191
REMARK   78  A    between atoms: _193  and  _195
REMARK   79  A    between atoms: _195  and  _196
REMARK   80  A    between atoms: _195  and  _198
REMARK   81  A    between atoms: _198  and  _199
REMARK   82  A    between atoms: _202  and  _204
REMARK   83  A    between atoms: _204  and  _205
REMARK   84  A    between atoms: _207  and  _209
REMARK   85  A    between atoms: _209  and  _210
REMARK   86  A    between atoms: _209  and  _212
REMARK   87  A    between atoms: _212  and  _213
REMARK   88  A    between atoms: _218  and  _220
REMARK   89  A    between atoms: _220  and  _221
REMARK   90  A    between atoms: _220  and  _223
REMARK   91  A    between atoms: _223  and  _224
REMARK   92  A    between atoms: _227  and  _229
REMARK   93  A    between atoms: _229  and  _230
REMARK   94  A    between atoms: _232  and  _234
REMARK   95  A    between atoms: _234  and  _235
REMARK   96  A    between atoms: _234  and  _237
REMARK   97  A    between atoms: _237  and  _238
REMARK   98  A    between atoms: _241  and  _243
REMARK   99  A    between atoms: _243  and  _244
REMARK  100  A    between atoms: _243  and  _246
REMARK  101  A    between atoms: _246  and  _247
REMARK  102  A    between atoms: _249  and  _251
REMARK  103  A    between atoms: _251  and  _252
REMARK  104  A    between atoms: _251  and  _254
REMARK  105  A    between atoms: _254  and  _255
REMARK  106  A    between atoms: _259  and  ZN_261
REMARK                            x       y       z     vdW  Elec       q    Type
REMARK                         _______ _______ _______ _____ _____    ______ ____
ROOT
ATOM      1  O   HOH     1     -45.084   7.366  -8.729  0.00  0.00    +0.000 OA
ENDROOT
TORSDOF 0
REMARK  Name = ../refined-set-2016/4exs/4exs_pocket.pdb
REMARK  106 active torsions:
REMARK  status: ('A' for Active; 'I' for Inactive)
REMARK    1  A    between atoms: _1  and  _3
REMARK    2  A    between atoms: _3  and  _4
REMARK    3  A    between atoms: _3  and  _6
REMARK    4  A    between atoms: _6  and  _7
REMARK    5  A    between atoms: _10  and  _12
REMARK    6  A    between atoms: _12  and  _13
REMARK    7  A    between atoms: _12  and  _15
REMARK    8  A    between atoms: _15  and  _16
REMARK    9  A    between atoms: _22  and  _24
REMARK   10  A    between atoms: _24  and  _25
REMARK   11  A    between atoms: _24  and  _27
REMARK   12  A    between atoms: _30  and  _32
REMARK   13  A    between atoms: _32  and  _33
REMARK   14  A    between atoms: _36  and  _38
REMARK   15  A    between atoms: _38  and  _39
REMARK   16  A    between atoms: _38  and  _41
REMARK   17  A    between atoms: _41  and  _42
REMARK   18  A    between atoms: _44  and  _46
REMARK   19  A    between atoms: _46  and  _47
REMARK   20  A    between atoms: _46  and  _49
REMARK   21  A    between atoms: _49  and  _50
REMARK   22  A    between atoms: _60  and  _62
REMARK   23  A    between atoms: _79  and  _80
REMARK   24  A    between atoms: _88  and  _90
REMARK   25  A    between atoms: _90  and  _91
REMARK   26  A    between atoms: _90  and  _93
REMARK   27  A    between atoms: _93  and  _94
REMARK   28  A    between atoms: _94  and  _95
REMARK   29  A    between atoms: _100  and  _102
REMARK   30  A    between atoms: _102  and  _103
REMARK   31  A    between atoms: _102  and  _105
REMARK   32  A    between atoms: _105  and  _106
REMARK   33  A    between atoms: _106  and  _108
REMARK   34  A    between atoms: _108  and  ZN_261
REMARK   35  A    between atoms: _109  and  _111
REMARK   36  A    between atoms: _111  and  _112
REMARK   37  A    between atoms: _111  and  _114
REMARK   38  A    between atoms: _114  and  _115
REMARK   39  A    between atoms: _115  and  _116
REMARK   40  A    between atoms: _116  and  _117
REMARK   41  A    between atoms: _117  and  _118
REMARK   42  A    between atoms: _122  and  _124
REMARK   43  A    between atoms: _124  and  _125
REMARK   44  A    between atoms: _124  and  _127
REMARK   45  A    between atoms: _127  and  _128
REMARK   46  A    between atoms: _128  and  _129
REMARK   47  A    between atoms: _131  and  _133
REMARK   48  A    between atoms: _133  and  _134
REMARK   49  A    between atoms: _133  and  _136
REMARK   50  A    between atoms: _136  and  _137
REMARK   51  A    between atoms: _141  and  ZN_260
REMARK   52  A    between atoms: _142  and  _144
REMARK   53  A    between atoms: _144  and  _145
REMARK   54  A    between atoms: _144  and  _147
REMARK   55  A    between atoms: _147  and  _148
REMARK   56  A    between atoms: _151  and  _153
REMARK   57  A    between atoms: _153  and  _154
REMARK   58  A    between atoms: _156  and  _158
REMARK   59  A    between atoms: _158  and  _159
REMARK   60  A    between atoms: _158  and  _161
REMARK   61  A    between atoms: _161  and  _162
REMARK   62  A    between atoms: _162  and  ZN_261
REMARK   63  A    between atoms: _163  and  _165
REMARK   64  A    between atoms: _165  and  _166
REMARK   65  A    between atoms: _165  and  _168
REMARK   66  A    between atoms: _168  and  _169
REMARK   67  A    between atoms: _172  and  _174
REMARK   68  A    between atoms: _174  and  _175
REMARK   69  A    between atoms: _174  and  _177
REMARK   70  A    between atoms: _177  and  _178
REMARK   71  A    between atoms: _178  and  _179
REMARK   72  A    between atoms: _179  and  _180
REMARK   73  A    between atoms: _180  and  _181
REMARK   74  A    between atoms: _185  and  _187
REMARK   75  A    between atoms: _187  and  _188
REMARK   76  A    between atoms: _187  and  _190
REMARK   77  A    between atoms: _190  and  _191
REMARK   78  A    between atoms: _193  and  _195
REMARK   79  A    between atoms: _195  and  _196
REMARK   80  A    between atoms: _195  and  _198
REMARK   81  A    between atoms: _198  and  _199
REMARK   82  A    between atoms: _202  and  _204
REMARK   83  A    between atoms: _204  and  _205
REMARK   84  A    between atoms: _207  and  _209
REMARK   85  A    between atoms: _209  and  _210
REMARK   86  A    between atoms: _209  and  _212
REMARK   87  A    between atoms: _212  and  _213
REMARK   88  A    between atoms: _218  and  _220
REMARK   89  A    between atoms: _220  and  _221
REMARK   90  A    between atoms: _220  and  _223
REMARK   91  A    between atoms: _223  and  _224
REMARK   92  A    between atoms: _227  and  _229
REMARK   93  A    between atoms: _229  and  _230
REMARK   94  A    between atoms: _232  and  _234
REMARK   95  A    between atoms: _234  and  _235
REMARK   96  A    between atoms: _234  and  _237
REMARK   97  A    between atoms: _237  and  _238
REMARK   98  A    between atoms: _241  and  _243
REMARK   99  A    between atoms: _243  and  _244
REMARK  100  A    between atoms: _243  and  _246
REMARK  101  A    between atoms: _246  and  _247
REMARK  102  A    between atoms: _249  and  _251
REMARK  103  A    between atoms: _251  and  _252
REMARK  104  A    between atoms: _251  and  _254
REMARK  105  A    between atoms: _254  and  _255
REMARK  106  A    between atoms: _259  and  ZN_261
REMARK                            x       y       z     vdW  Elec       q    Type
REMARK                         _______ _______ _______ _____ _____    ______ ____
ROOT
ATOM      1  O   HOH     1     -36.407  12.462  -6.359  0.00  0.00    +0.000 OA
ENDROOT
TORSDOF 0
