REMARK  Name = ../refined-set-2016/3ccz/3ccz_pocket.pdb
REMARK  245 active torsions:
REMARK  status: ('A' for Active; 'I' for Inactive)
REMARK    1  A    between atoms: _1  and  _3
REMARK    2  A    between atoms: _3  and  _4
REMARK    3  A    between atoms: _3  and  _6
REMARK    4  A    between atoms: _6  and  _7
REMARK    5  A    between atoms: _7  and  _8
REMARK    6  A    between atoms: _11  and  _13
REMARK    7  A    between atoms: _13  and  _14
REMARK    8  A    between atoms: _13  and  _16
REMARK    9  A    between atoms: _16  and  _17
REMARK   10  A    between atoms: _20  and  _22
REMARK   11  A    between atoms: _22  and  _23
REMARK   12  A    between atoms: _22  and  _25
REMARK   13  A    between atoms: _25  and  _26
REMARK   14  A    between atoms: _26  and  _27
REMARK   15  A    between atoms: _27  and  _28
REMARK   16  A    between atoms: _37  and  _39
REMARK   17  A    between atoms: _39  and  _40
REMARK   18  A    between atoms: _43  and  _44
REMARK   19  A    between atoms: _49  and  _51
REMARK   20  A    between atoms: _51  and  _52
REMARK   21  A    between atoms: _51  and  _54
REMARK   22  A    between atoms: _54  and  _55
REMARK   23  A    between atoms: _55  and  _56
REMARK   24  A    between atoms: _58  and  _60
REMARK   25  A    between atoms: _60  and  _61
REMARK   26  A    between atoms: _60  and  _63
REMARK   27  A    between atoms: _63  and  _64
REMARK   28  A    between atoms: _64  and  _65
REMARK   29  A    between atoms: _67  and  _69
REMARK   30  A    between atoms: _69  and  _70
REMARK   31  A    between atoms: _69  and  _72
REMARK   32  A    between atoms: _72  and  _73
REMARK   33  A    between atoms: _78  and  _80
REMARK   34  A    between atoms: _80  and  _81
REMARK   35  A    between atoms: _80  and  _83
REMARK   36  A    between atoms: _83  and  _84
REMARK   37  A    between atoms: _84  and  _85
REMARK   38  A    between atoms: _87  and  _89
REMARK   39  A    between atoms: _89  and  _90
REMARK   40  A    between atoms: _89  and  _92
REMARK   41  A    between atoms: _92  and  _93
REMARK   42  A    between atoms: _96  and  _98
REMARK   43  A    between atoms: _98  and  _99
REMARK   44  A    between atoms: _98  and  _101
REMARK   45  A    between atoms: _101  and  _102
REMARK   46  A    between atoms: _104  and  _106
REMARK   47  A    between atoms: _106  and  _107
REMARK   48  A    between atoms: _106  and  _109
REMARK   49  A    between atoms: _109  and  _110
REMARK   50  A    between atoms: _110  and  _111
REMARK   51  A    between atoms: _111  and  _112
REMARK   52  A    between atoms: _112  and  _113
REMARK   53  A    between atoms: _117  and  _119
REMARK   54  A    between atoms: _119  and  _120
REMARK   55  A    between atoms: _119  and  _122
REMARK   56  A    between atoms: _122  and  _123
REMARK   57  A    between atoms: _126  and  _128
REMARK   58  A    between atoms: _128  and  _129
REMARK   59  A    between atoms: _128  and  _131
REMARK   60  A    between atoms: _131  and  _132
REMARK   61  A    between atoms: _132  and  _133
REMARK   62  A    between atoms: _136  and  _138
REMARK   63  A    between atoms: _138  and  _139
REMARK   64  A    between atoms: _142  and  _144
REMARK   65  A    between atoms: _144  and  _145
REMARK   66  A    between atoms: _144  and  _147
REMARK   67  A    between atoms: _150  and  _152
REMARK   68  A    between atoms: _152  and  _153
REMARK   69  A    between atoms: _152  and  _155
REMARK   70  A    between atoms: _155  and  _156
REMARK   71  A    between atoms: _158  and  _160
REMARK   72  A    between atoms: _160  and  _161
REMARK   73  A    between atoms: _163  and  _165
REMARK   74  A    between atoms: _165  and  _166
REMARK   75  A    between atoms: _165  and  _168
REMARK   76  A    between atoms: _168  and  _169
REMARK   77  A    between atoms: _174  and  _176
REMARK   78  A    between atoms: _176  and  _177
REMARK   79  A    between atoms: _176  and  _179
REMARK   80  A    between atoms: _179  and  _180
REMARK   81  A    between atoms: _185  and  _186
REMARK   82  A    between atoms: _188  and  _190
REMARK   83  A    between atoms: _190  and  _191
REMARK   84  A    between atoms: _190  and  _193
REMARK   85  A    between atoms: _195  and  _197
REMARK   86  A    between atoms: _197  and  _198
REMARK   87  A    between atoms: _197  and  _200
REMARK   88  A    between atoms: _200  and  _201
REMARK   89  A    between atoms: _204  and  _206
REMARK   90  A    between atoms: _206  and  _207
REMARK   91  A    between atoms: _206  and  _209
REMARK   92  A    between atoms: _209  and  _210
REMARK   93  A    between atoms: _213  and  _215
REMARK   94  A    between atoms: _215  and  _216
REMARK   95  A    between atoms: _215  and  _218
REMARK   96  A    between atoms: _218  and  _219
REMARK   97  A    between atoms: _219  and  _220
REMARK   98  A    between atoms: _220  and  _221
REMARK   99  A    between atoms: _221  and  _222
REMARK  100  A    between atoms: _226  and  _228
REMARK  101  A    between atoms: _228  and  _229
REMARK  102  A    between atoms: _228  and  _231
REMARK  103  A    between atoms: _231  and  _232
REMARK  104  A    between atoms: _232  and  _233
REMARK  105  A    between atoms: _233  and  _234
REMARK  106  A    between atoms: _234  and  _235
REMARK  107  A    between atoms: _239  and  _241
REMARK  108  A    between atoms: _241  and  _242
REMARK  109  A    between atoms: _241  and  _244
REMARK  110  A    between atoms: _244  and  _245
REMARK  111  A    between atoms: _245  and  _246
REMARK  112  A    between atoms: _246  and  _247
REMARK  113  A    between atoms: _256  and  _258
REMARK  114  A    between atoms: _258  and  _259
REMARK  115  A    between atoms: _258  and  _261
REMARK  116  A    between atoms: _261  and  _262
REMARK  117  A    between atoms: _265  and  _267
REMARK  118  A    between atoms: _267  and  _268
REMARK  119  A    between atoms: _271  and  _273
REMARK  120  A    between atoms: _273  and  _274
REMARK  121  A    between atoms: _273  and  _276
REMARK  122  A    between atoms: _276  and  _277
REMARK  123  A    between atoms: _277  and  _278
REMARK  124  A    between atoms: _283  and  _285
REMARK  125  A    between atoms: _285  and  _286
REMARK  126  A    between atoms: _285  and  _288
REMARK  127  A    between atoms: _288  and  _289
REMARK  128  A    between atoms: _289  and  _290
REMARK  129  A    between atoms: _293  and  _295
REMARK  130  A    between atoms: _295  and  _296
REMARK  131  A    between atoms: _298  and  _300
REMARK  132  A    between atoms: _300  and  _301
REMARK  133  A    between atoms: _300  and  _303
REMARK  134  A    between atoms: _305  and  _307
REMARK  135  A    between atoms: _307  and  _308
REMARK  136  A    between atoms: _307  and  _310
REMARK  137  A    between atoms: _310  and  _311
REMARK  138  A    between atoms: _314  and  _316
REMARK  139  A    between atoms: _316  and  _317
REMARK  140  A    between atoms: _316  and  _319
REMARK  141  A    between atoms: _322  and  _324
REMARK  142  A    between atoms: _324  and  _325
REMARK  143  A    between atoms: _328  and  _330
REMARK  144  A    between atoms: _330  and  _331
REMARK  145  A    between atoms: _330  and  _333
REMARK  146  A    between atoms: _333  and  _334
REMARK  147  A    between atoms: _336  and  _338
REMARK  148  A    between atoms: _338  and  _339
REMARK  149  A    between atoms: _338  and  _341
REMARK  150  A    between atoms: _341  and  _342
REMARK  151  A    between atoms: _345  and  _347
REMARK  152  A    between atoms: _347  and  _348
REMARK  153  A    between atoms: _347  and  _350
REMARK  154  A    between atoms: _350  and  _351
REMARK  155  A    between atoms: _356  and  _358
REMARK  156  A    between atoms: _358  and  _359
REMARK  157  A    between atoms: _358  and  _361
REMARK  158  A    between atoms: _361  and  _362
REMARK  159  A    between atoms: _362  and  _363
REMARK  160  A    between atoms: _363  and  _364
REMARK  161  A    between atoms: _373  and  _375
REMARK  162  A    between atoms: _375  and  _376
REMARK  163  A    between atoms: _378  and  _380
REMARK  164  A    between atoms: _380  and  _381
REMARK  165  A    between atoms: _380  and  _383
REMARK  166  A    between atoms: _386  and  _388
REMARK  167  A    between atoms: _388  and  _389
REMARK  168  A    between atoms: _388  and  _391
REMARK  169  A    between atoms: _391  and  _392
REMARK  170  A    between atoms: _395  and  _397
REMARK  171  A    between atoms: _397  and  _398
REMARK  172  A    between atoms: _397  and  _400
REMARK  173  A    between atoms: _400  and  _401
REMARK  174  A    between atoms: _401  and  _402
REMARK  175  A    between atoms: _402  and  _403
REMARK  176  A    between atoms: _403  and  _404
REMARK  177  A    between atoms: _408  and  _410
REMARK  178  A    between atoms: _410  and  _411
REMARK  179  A    between atoms: _410  and  _413
REMARK  180  A    between atoms: _413  and  _414
REMARK  181  A    between atoms: _414  and  _415
REMARK  182  A    between atoms: _415  and  _416
REMARK  183  A    between atoms: _416  and  _417
REMARK  184  A    between atoms: _421  and  _423
REMARK  185  A    between atoms: _423  and  _424
REMARK  186  A    between atoms: _423  and  _426
REMARK  187  A    between atoms: _426  and  _427
REMARK  188  A    between atoms: _432  and  _434
REMARK  189  A    between atoms: _434  and  _435
REMARK  190  A    between atoms: _434  and  _437
REMARK  191  A    between atoms: _437  and  _438
REMARK  192  A    between atoms: _443  and  _445
REMARK  193  A    between atoms: _445  and  _446
REMARK  194  A    between atoms: _449  and  _451
REMARK  195  A    between atoms: _451  and  _452
REMARK  196  A    between atoms: _451  and  _454
REMARK  197  A    between atoms: _454  and  _455
REMARK  198  A    between atoms: _460  and  _462
REMARK  199  A    between atoms: _462  and  _463
REMARK  200  A    between atoms: _466  and  _468
REMARK  201  A    between atoms: _468  and  _469
REMARK  202  A    between atoms: _472  and  _474
REMARK  203  A    between atoms: _474  and  _475
REMARK  204  A    between atoms: _474  and  _477
REMARK  205  A    between atoms: _477  and  _478
REMARK  206  A    between atoms: _483  and  _485
REMARK  207  A    between atoms: _485  and  _486
REMARK  208  A    between atoms: _485  and  _488
REMARK  209  A    between atoms: _488  and  _489
REMARK  210  A    between atoms: _492  and  _494
REMARK  211  A    between atoms: _494  and  _495
REMARK  212  A    between atoms: _497  and  _499
REMARK  213  A    between atoms: _499  and  _500
REMARK  214  A    between atoms: _499  and  _502
REMARK  215  A    between atoms: _502  and  _503
REMARK  216  A    between atoms: _503  and  _504
REMARK  217  A    between atoms: _507  and  _509
REMARK  218  A    between atoms: _509  and  _510
REMARK  219  A    between atoms: _509  and  _512
REMARK  220  A    between atoms: _512  and  _513
REMARK  221  A    between atoms: _516  and  _518
REMARK  222  A    between atoms: _518  and  _519
REMARK  223  A    between atoms: _518  and  _521
REMARK  224  A    between atoms: _521  and  _522
REMARK  225  A    between atoms: _524  and  _526
REMARK  226  A    between atoms: _526  and  _527
REMARK  227  A    between atoms: _526  and  _529
REMARK  228  A    between atoms: _529  and  _530
REMARK  229  A    between atoms: _533  and  _535
REMARK  230  A    between atoms: _535  and  _536
REMARK  231  A    between atoms: _535  and  _538
REMARK  232  A    between atoms: _538  and  _539
REMARK  233  A    between atoms: _539  and  _540
REMARK  234  A    between atoms: _542  and  _544
REMARK  235  A    between atoms: _544  and  _545
REMARK  236  A    between atoms: _548  and  _550
REMARK  237  A    between atoms: _550  and  _551
REMARK  238  A    between atoms: _554  and  _556
REMARK  239  A    between atoms: _556  and  _557
REMARK  240  A    between atoms: _556  and  _559
REMARK  241  A    between atoms: _559  and  _560
REMARK  242  A    between atoms: _563  and  _565
REMARK  243  A    between atoms: _565  and  _566
REMARK  244  A    between atoms: _569  and  _571
REMARK  245  A    between atoms: _571  and  _572
REMARK                            x       y       z     vdW  Elec       q    Type
REMARK                         _______ _______ _______ _____ _____    ______ ____
ROOT
ATOM      1  CA  GLU A   1      91.070  10.799 -10.698  0.00  0.00    +0.134 C 
ENDROOT
BRANCH   1   2
ATOM      2  N   GLU A   1      90.886   9.528  -9.990  0.00  0.00    -0.239 NA
ATOM      3  H   GLU A   1      90.770   9.547  -8.957  0.00  0.00    +0.142 HD
ENDBRANCH   1   2
BRANCH   1   4
ATOM      4  C   GLU A   1      92.224  11.592 -10.096  0.00  0.00    +0.224 C 
ATOM      5  O   GLU A   1      92.662  11.314  -8.981  0.00  0.00    -0.287 OA
ENDBRANCH   1   4
BRANCH   1   6
ATOM      6  CB  GLU A   1      89.799  11.648 -10.633  0.00  0.00    +0.037 C 
BRANCH   6   7
ATOM      7  CG  GLU A   1      88.565  10.982 -11.219  0.00  0.00    +0.116 C 
BRANCH   7   8
ATOM      8  CD  GLU A   1      87.951   9.960 -10.284  0.00  0.00    +0.365 C 
ATOM      9  OE2 GLU A   1      87.706  10.291  -9.105  0.00  0.00    -0.246 OA
ATOM     10  OE1 GLU A   1      87.722   8.817 -10.727  0.00  0.00    -0.246 OA
ENDBRANCH   7   8
ENDBRANCH   6   7
ENDBRANCH   1   6
TORSDOF 5
REMARK  Name = ../refined-set-2016/3ccz/3ccz_pocket.pdb
REMARK  245 active torsions:
REMARK  status: ('A' for Active; 'I' for Inactive)
REMARK    1  A    between atoms: _1  and  _3
REMARK    2  A    between atoms: _3  and  _4
REMARK    3  A    between atoms: _3  and  _6
REMARK    4  A    between atoms: _6  and  _7
REMARK    5  A    between atoms: _7  and  _8
REMARK    6  A    between atoms: _11  and  _13
REMARK    7  A    between atoms: _13  and  _14
REMARK    8  A    between atoms: _13  and  _16
REMARK    9  A    between atoms: _16  and  _17
REMARK   10  A    between atoms: _20  and  _22
REMARK   11  A    between atoms: _22  and  _23
REMARK   12  A    between atoms: _22  and  _25
REMARK   13  A    between atoms: _25  and  _26
REMARK   14  A    between atoms: _26  and  _27
REMARK   15  A    between atoms: _27  and  _28
REMARK   16  A    between atoms: _37  and  _39
REMARK   17  A    between atoms: _39  and  _40
REMARK   18  A    between atoms: _43  and  _44
REMARK   19  A    between atoms: _49  and  _51
REMARK   20  A    between atoms: _51  and  _52
REMARK   21  A    between atoms: _51  and  _54
REMARK   22  A    between atoms: _54  and  _55
REMARK   23  A    between atoms: _55  and  _56
REMARK   24  A    between atoms: _58  and  _60
REMARK   25  A    between atoms: _60  and  _61
REMARK   26  A    between atoms: _60  and  _63
REMARK   27  A    between atoms: _63  and  _64
REMARK   28  A    between atoms: _64  and  _65
REMARK   29  A    between atoms: _67  and  _69
REMARK   30  A    between atoms: _69  and  _70
REMARK   31  A    between atoms: _69  and  _72
REMARK   32  A    between atoms: _72  and  _73
REMARK   33  A    between atoms: _78  and  _80
REMARK   34  A    between atoms: _80  and  _81
REMARK   35  A    between atoms: _80  and  _83
REMARK   36  A    between atoms: _83  and  _84
REMARK   37  A    between atoms: _84  and  _85
REMARK   38  A    between atoms: _87  and  _89
REMARK   39  A    between atoms: _89  and  _90
REMARK   40  A    between atoms: _89  and  _92
REMARK   41  A    between atoms: _92  and  _93
REMARK   42  A    between atoms: _96  and  _98
REMARK   43  A    between atoms: _98  and  _99
REMARK   44  A    between atoms: _98  and  _101
REMARK   45  A    between atoms: _101  and  _102
REMARK   46  A    between atoms: _104  and  _106
REMARK   47  A    between atoms: _106  and  _107
REMARK   48  A    between atoms: _106  and  _109
REMARK   49  A    between atoms: _109  and  _110
REMARK   50  A    between atoms: _110  and  _111
REMARK   51  A    between atoms: _111  and  _112
REMARK   52  A    between atoms: _112  and  _113
REMARK   53  A    between atoms: _117  and  _119
REMARK   54  A    between atoms: _119  and  _120
REMARK   55  A    between atoms: _119  and  _122
REMARK   56  A    between atoms: _122  and  _123
REMARK   57  A    between atoms: _126  and  _128
REMARK   58  A    between atoms: _128  and  _129
REMARK   59  A    between atoms: _128  and  _131
REMARK   60  A    between atoms: _131  and  _132
REMARK   61  A    between atoms: _132  and  _133
REMARK   62  A    between atoms: _136  and  _138
REMARK   63  A    between atoms: _138  and  _139
REMARK   64  A    between atoms: _142  and  _144
REMARK   65  A    between atoms: _144  and  _145
REMARK   66  A    between atoms: _144  and  _147
REMARK   67  A    between atoms: _150  and  _152
REMARK   68  A    between atoms: _152  and  _153
REMARK   69  A    between atoms: _152  and  _155
REMARK   70  A    between atoms: _155  and  _156
REMARK   71  A    between atoms: _158  and  _160
REMARK   72  A    between atoms: _160  and  _161
REMARK   73  A    between atoms: _163  and  _165
REMARK   74  A    between atoms: _165  and  _166
REMARK   75  A    between atoms: _165  and  _168
REMARK   76  A    between atoms: _168  and  _169
REMARK   77  A    between atoms: _174  and  _176
REMARK   78  A    between atoms: _176  and  _177
REMARK   79  A    between atoms: _176  and  _179
REMARK   80  A    between atoms: _179  and  _180
REMARK   81  A    between atoms: _185  and  _186
REMARK   82  A    between atoms: _188  and  _190
REMARK   83  A    between atoms: _190  and  _191
REMARK   84  A    between atoms: _190  and  _193
REMARK   85  A    between atoms: _195  and  _197
REMARK   86  A    between atoms: _197  and  _198
REMARK   87  A    between atoms: _197  and  _200
REMARK   88  A    between atoms: _200  and  _201
REMARK   89  A    between atoms: _204  and  _206
REMARK   90  A    between atoms: _206  and  _207
REMARK   91  A    between atoms: _206  and  _209
REMARK   92  A    between atoms: _209  and  _210
REMARK   93  A    between atoms: _213  and  _215
REMARK   94  A    between atoms: _215  and  _216
REMARK   95  A    between atoms: _215  and  _218
REMARK   96  A    between atoms: _218  and  _219
REMARK   97  A    between atoms: _219  and  _220
REMARK   98  A    between atoms: _220  and  _221
REMARK   99  A    between atoms: _221  and  _222
REMARK  100  A    between atoms: _226  and  _228
REMARK  101  A    between atoms: _228  and  _229
REMARK  102  A    between atoms: _228  and  _231
REMARK  103  A    between atoms: _231  and  _232
REMARK  104  A    between atoms: _232  and  _233
REMARK  105  A    between atoms: _233  and  _234
REMARK  106  A    between atoms: _234  and  _235
REMARK  107  A    between atoms: _239  and  _241
REMARK  108  A    between atoms: _241  and  _242
REMARK  109  A    between atoms: _241  and  _244
REMARK  110  A    between atoms: _244  and  _245
REMARK  111  A    between atoms: _245  and  _246
REMARK  112  A    between atoms: _246  and  _247
REMARK  113  A    between atoms: _256  and  _258
REMARK  114  A    between atoms: _258  and  _259
REMARK  115  A    between atoms: _258  and  _261
REMARK  116  A    between atoms: _261  and  _262
REMARK  117  A    between atoms: _265  and  _267
REMARK  118  A    between atoms: _267  and  _268
REMARK  119  A    between atoms: _271  and  _273
REMARK  120  A    between atoms: _273  and  _274
REMARK  121  A    between atoms: _273  and  _276
REMARK  122  A    between atoms: _276  and  _277
REMARK  123  A    between atoms: _277  and  _278
REMARK  124  A    between atoms: _283  and  _285
REMARK  125  A    between atoms: _285  and  _286
REMARK  126  A    between atoms: _285  and  _288
REMARK  127  A    between atoms: _288  and  _289
REMARK  128  A    between atoms: _289  and  _290
REMARK  129  A    between atoms: _293  and  _295
REMARK  130  A    between atoms: _295  and  _296
REMARK  131  A    between atoms: _298  and  _300
REMARK  132  A    between atoms: _300  and  _301
REMARK  133  A    between atoms: _300  and  _303
REMARK  134  A    between atoms: _305  and  _307
REMARK  135  A    between atoms: _307  and  _308
REMARK  136  A    between atoms: _307  and  _310
REMARK  137  A    between atoms: _310  and  _311
REMARK  138  A    between atoms: _314  and  _316
REMARK  139  A    between atoms: _316  and  _317
REMARK  140  A    between atoms: _316  and  _319
REMARK  141  A    between atoms: _322  and  _324
REMARK  142  A    between atoms: _324  and  _325
REMARK  143  A    between atoms: _328  and  _330
REMARK  144  A    between atoms: _330  and  _331
REMARK  145  A    between atoms: _330  and  _333
REMARK  146  A    between atoms: _333  and  _334
REMARK  147  A    between atoms: _336  and  _338
REMARK  148  A    between atoms: _338  and  _339
REMARK  149  A    between atoms: _338  and  _341
REMARK  150  A    between atoms: _341  and  _342
REMARK  151  A    between atoms: _345  and  _347
REMARK  152  A    between atoms: _347  and  _348
REMARK  153  A    between atoms: _347  and  _350
REMARK  154  A    between atoms: _350  and  _351
REMARK  155  A    between atoms: _356  and  _358
REMARK  156  A    between atoms: _358  and  _359
REMARK  157  A    between atoms: _358  and  _361
REMARK  158  A    between atoms: _361  and  _362
REMARK  159  A    between atoms: _362  and  _363
REMARK  160  A    between atoms: _363  and  _364
REMARK  161  A    between atoms: _373  and  _375
REMARK  162  A    between atoms: _375  and  _376
REMARK  163  A    between atoms: _378  and  _380
REMARK  164  A    between atoms: _380  and  _381
REMARK  165  A    between atoms: _380  and  _383
REMARK  166  A    between atoms: _386  and  _388
REMARK  167  A    between atoms: _388  and  _389
REMARK  168  A    between atoms: _388  and  _391
REMARK  169  A    between atoms: _391  and  _392
REMARK  170  A    between atoms: _395  and  _397
REMARK  171  A    between atoms: _397  and  _398
REMARK  172  A    between atoms: _397  and  _400
REMARK  173  A    between atoms: _400  and  _401
REMARK  174  A    between atoms: _401  and  _402
REMARK  175  A    between atoms: _402  and  _403
REMARK  176  A    between atoms: _403  and  _404
REMARK  177  A    between atoms: _408  and  _410
REMARK  178  A    between atoms: _410  and  _411
REMARK  179  A    between atoms: _410  and  _413
REMARK  180  A    between atoms: _413  and  _414
REMARK  181  A    between atoms: _414  and  _415
REMARK  182  A    between atoms: _415  and  _416
REMARK  183  A    between atoms: _416  and  _417
REMARK  184  A    between atoms: _421  and  _423
REMARK  185  A    between atoms: _423  and  _424
REMARK  186  A    between atoms: _423  and  _426
REMARK  187  A    between atoms: _426  and  _427
REMARK  188  A    between atoms: _432  and  _434
REMARK  189  A    between atoms: _434  and  _435
REMARK  190  A    between atoms: _434  and  _437
REMARK  191  A    between atoms: _437  and  _438
REMARK  192  A    between atoms: _443  and  _445
REMARK  193  A    between atoms: _445  and  _446
REMARK  194  A    between atoms: _449  and  _451
REMARK  195  A    between atoms: _451  and  _452
REMARK  196  A    between atoms: _451  and  _454
REMARK  197  A    between atoms: _454  and  _455
REMARK  198  A    between atoms: _460  and  _462
REMARK  199  A    between atoms: _462  and  _463
REMARK  200  A    between atoms: _466  and  _468
REMARK  201  A    between atoms: _468  and  _469
REMARK  202  A    between atoms: _472  and  _474
REMARK  203  A    between atoms: _474  and  _475
REMARK  204  A    between atoms: _474  and  _477
REMARK  205  A    between atoms: _477  and  _478
REMARK  206  A    between atoms: _483  and  _485
REMARK  207  A    between atoms: _485  and  _486
REMARK  208  A    between atoms: _485  and  _488
REMARK  209  A    between atoms: _488  and  _489
REMARK  210  A    between atoms: _492  and  _494
REMARK  211  A    between atoms: _494  and  _495
REMARK  212  A    between atoms: _497  and  _499
REMARK  213  A    between atoms: _499  and  _500
REMARK  214  A    between atoms: _499  and  _502
REMARK  215  A    between atoms: _502  and  _503
REMARK  216  A    between atoms: _503  and  _504
REMARK  217  A    between atoms: _507  and  _509
REMARK  218  A    between atoms: _509  and  _510
REMARK  219  A    between atoms: _509  and  _512
REMARK  220  A    between atoms: _512  and  _513
REMARK  221  A    between atoms: _516  and  _518
REMARK  222  A    between atoms: _518  and  _519
REMARK  223  A    between atoms: _518  and  _521
REMARK  224  A    between atoms: _521  and  _522
REMARK  225  A    between atoms: _524  and  _526
REMARK  226  A    between atoms: _526  and  _527
REMARK  227  A    between atoms: _526  and  _529
REMARK  228  A    between atoms: _529  and  _530
REMARK  229  A    between atoms: _533  and  _535
REMARK  230  A    between atoms: _535  and  _536
REMARK  231  A    between atoms: _535  and  _538
REMARK  232  A    between atoms: _538  and  _539
REMARK  233  A    between atoms: _539  and  _540
REMARK  234  A    between atoms: _542  and  _544
REMARK  235  A    between atoms: _544  and  _545
REMARK  236  A    between atoms: _548  and  _550
REMARK  237  A    between atoms: _550  and  _551
REMARK  238  A    between atoms: _554  and  _556
REMARK  239  A    between atoms: _556  and  _557
REMARK  240  A    between atoms: _556  and  _559
REMARK  241  A    between atoms: _559  and  _560
REMARK  242  A    between atoms: _563  and  _565
REMARK  243  A    between atoms: _565  and  _566
REMARK  244  A    between atoms: _569  and  _571
REMARK  245  A    between atoms: _571  and  _572
REMARK                            x       y       z     vdW  Elec       q    Type
REMARK                         _______ _______ _______ _____ _____    ______ ____
ROOT
ATOM      1  CA  ARG A   2      70.015   0.233  -1.029  0.00  0.00    +0.149 C 
ENDROOT
BRANCH   1   4
ATOM      2  C   THR A   1      71.138  -1.935  -0.819  0.00  0.00    +0.241 C 
ATOM      3  O   THR A   1      72.270  -1.458  -0.857  0.00  0.00    -0.274 OA
ATOM      4  N   ARG A   2      70.034  -1.224  -1.022  0.00  0.00    -0.297 N 
ATOM      5  H   ARG A   2      69.141  -1.732  -1.184  0.00  0.00    +0.150 HD
BRANCH   2   6
ATOM      6  CA  THR A   1      70.907  -3.416  -0.552  0.00  0.00    +0.172 C 
BRANCH   6   7
ATOM      7  N   THR A   1      72.077  -4.251  -0.812  0.00  0.00    -0.236 NA
ATOM      8  H   THR A   1      72.985  -4.011  -0.365  0.00  0.00    +0.142 HD
ENDBRANCH   6   7
BRANCH   6   9
ATOM      9  CB  THR A   1      70.438  -3.588   0.909  0.00  0.00    +0.135 C 
ATOM     10  CG2 THR A   1      70.310  -5.058   1.286  0.00  0.00    +0.034 C 
BRANCH   9  11
ATOM     11  OG1 THR A   1      71.436  -3.083   1.802  0.00  0.00    -0.383 OA
ATOM     12  HG1 THR A   1      71.129  -3.196   2.736  0.00  0.00    +0.210 HD
ENDBRANCH   9  11
ENDBRANCH   6   9
ENDBRANCH   2   6
ENDBRANCH   1   4
BRANCH   1  13
ATOM     13  C   ARG A   2      68.756   0.691  -0.298  0.00  0.00    +0.241 C 
ATOM     14  N   GLY A   3      68.885   1.743   0.503  0.00  0.00    -0.295 N 
ATOM     15  H   GLY A   3      69.761   2.302   0.461  0.00  0.00    +0.150 HD
ATOM     16  O   ARG A   2      67.687   0.109  -0.467  0.00  0.00    -0.273 OA
BRANCH  14  17
ATOM     17  CA  GLY A   3      67.844   2.137   1.434  0.00  0.00    +0.176 C 
BRANCH  17  18
ATOM     18  C   GLY A   3      67.445   3.592   1.291  0.00  0.00    +0.246 C 
ATOM     19  O   GLY A   3      67.742   4.393   2.177  0.00  0.00    -0.273 OA
ATOM     20  N   PRO A   4      66.777   3.942   0.190  0.00  0.00    -0.273 N 
ATOM     21  CA  PRO A   4      66.321   5.320  -0.031  0.00  0.00    +0.140 C 
ATOM     22  CB  PRO A   4      65.618   5.236  -1.394  0.00  0.00    +0.030 C 
ATOM     23  CG  PRO A   4      65.259   3.802  -1.540  0.00  0.00    +0.024 C 
ATOM     24  CD  PRO A   4      66.415   3.071  -0.944  0.00  0.00    +0.094 C 
BRANCH  21  25
ATOM     25  C   PRO A   4      65.332   5.824   1.015  0.00  0.00    +0.227 C 
ATOM     26  O   PRO A   4      64.695   5.035   1.708  0.00  0.00    -0.286 OA
ENDBRANCH  21  25
ENDBRANCH  17  18
ENDBRANCH  14  17
ENDBRANCH   1  13
BRANCH   1  27
ATOM     27  CB  ARG A   2      70.051   0.771  -2.465  0.00  0.00    +0.033 C 
BRANCH  27  28
ATOM     28  CG  ARG A   2      70.066   2.297  -2.589  0.00  0.00    +0.045 C 
BRANCH  28  29
ATOM     29  CD  ARG A   2      71.219   2.989  -1.862  0.00  0.00    +0.174 C 
BRANCH  29  30
ATOM     30  NE  ARG A   2      72.425   3.092  -2.677  0.00  0.00    -0.265 N 
ATOM     31  CZ  ARG A   2      73.634   3.400  -2.210  0.00  0.00    +0.342 C 
ATOM     32  NH2 ARG A   2      73.828   3.641  -0.916  0.00  0.00    -0.292 N 
ATOM     33 HH21 ARG A   2      73.029   3.590  -0.252  0.00  0.00    +0.255 HD
ATOM     34 HH22 ARG A   2      74.779   3.880  -0.568  0.00  0.00    +0.255 HD
ATOM     35  NH1 ARG A   2      74.662   3.466  -3.045  0.00  0.00    -0.292 N 
ATOM     36 HH11 ARG A   2      75.608   3.706  -2.687  0.00  0.00    +0.255 HD
ATOM     37 HH12 ARG A   2      74.522   3.278  -4.058  0.00  0.00    +0.255 HD
ATOM     38  HE  ARG A   2      72.334   2.912  -3.697  0.00  0.00    +0.259 HD
ENDBRANCH  29  30
ENDBRANCH  28  29
ENDBRANCH  27  28
ENDBRANCH   1  27
TORSDOF 13
REMARK  Name = ../refined-set-2016/3ccz/3ccz_pocket.pdb
REMARK  245 active torsions:
REMARK  status: ('A' for Active; 'I' for Inactive)
REMARK    1  A    between atoms: _1  and  _3
REMARK    2  A    between atoms: _3  and  _4
REMARK    3  A    between atoms: _3  and  _6
REMARK    4  A    between atoms: _6  and  _7
REMARK    5  A    between atoms: _7  and  _8
REMARK    6  A    between atoms: _11  and  _13
REMARK    7  A    between atoms: _13  and  _14
REMARK    8  A    between atoms: _13  and  _16
REMARK    9  A    between atoms: _16  and  _17
REMARK   10  A    between atoms: _20  and  _22
REMARK   11  A    between atoms: _22  and  _23
REMARK   12  A    between atoms: _22  and  _25
REMARK   13  A    between atoms: _25  and  _26
REMARK   14  A    between atoms: _26  and  _27
REMARK   15  A    between atoms: _27  and  _28
REMARK   16  A    between atoms: _37  and  _39
REMARK   17  A    between atoms: _39  and  _40
REMARK   18  A    between atoms: _43  and  _44
REMARK   19  A    between atoms: _49  and  _51
REMARK   20  A    between atoms: _51  and  _52
REMARK   21  A    between atoms: _51  and  _54
REMARK   22  A    between atoms: _54  and  _55
REMARK   23  A    between atoms: _55  and  _56
REMARK   24  A    between atoms: _58  and  _60
REMARK   25  A    between atoms: _60  and  _61
REMARK   26  A    between atoms: _60  and  _63
REMARK   27  A    between atoms: _63  and  _64
REMARK   28  A    between atoms: _64  and  _65
REMARK   29  A    between atoms: _67  and  _69
REMARK   30  A    between atoms: _69  and  _70
REMARK   31  A    between atoms: _69  and  _72
REMARK   32  A    between atoms: _72  and  _73
REMARK   33  A    between atoms: _78  and  _80
REMARK   34  A    between atoms: _80  and  _81
REMARK   35  A    between atoms: _80  and  _83
REMARK   36  A    between atoms: _83  and  _84
REMARK   37  A    between atoms: _84  and  _85
REMARK   38  A    between atoms: _87  and  _89
REMARK   39  A    between atoms: _89  and  _90
REMARK   40  A    between atoms: _89  and  _92
REMARK   41  A    between atoms: _92  and  _93
REMARK   42  A    between atoms: _96  and  _98
REMARK   43  A    between atoms: _98  and  _99
REMARK   44  A    between atoms: _98  and  _101
REMARK   45  A    between atoms: _101  and  _102
REMARK   46  A    between atoms: _104  and  _106
REMARK   47  A    between atoms: _106  and  _107
REMARK   48  A    between atoms: _106  and  _109
REMARK   49  A    between atoms: _109  and  _110
REMARK   50  A    between atoms: _110  and  _111
REMARK   51  A    between atoms: _111  and  _112
REMARK   52  A    between atoms: _112  and  _113
REMARK   53  A    between atoms: _117  and  _119
REMARK   54  A    between atoms: _119  and  _120
REMARK   55  A    between atoms: _119  and  _122
REMARK   56  A    between atoms: _122  and  _123
REMARK   57  A    between atoms: _126  and  _128
REMARK   58  A    between atoms: _128  and  _129
REMARK   59  A    between atoms: _128  and  _131
REMARK   60  A    between atoms: _131  and  _132
REMARK   61  A    between atoms: _132  and  _133
REMARK   62  A    between atoms: _136  and  _138
REMARK   63  A    between atoms: _138  and  _139
REMARK   64  A    between atoms: _142  and  _144
REMARK   65  A    between atoms: _144  and  _145
REMARK   66  A    between atoms: _144  and  _147
REMARK   67  A    between atoms: _150  and  _152
REMARK   68  A    between atoms: _152  and  _153
REMARK   69  A    between atoms: _152  and  _155
REMARK   70  A    between atoms: _155  and  _156
REMARK   71  A    between atoms: _158  and  _160
REMARK   72  A    between atoms: _160  and  _161
REMARK   73  A    between atoms: _163  and  _165
REMARK   74  A    between atoms: _165  and  _166
REMARK   75  A    between atoms: _165  and  _168
REMARK   76  A    between atoms: _168  and  _169
REMARK   77  A    between atoms: _174  and  _176
REMARK   78  A    between atoms: _176  and  _177
REMARK   79  A    between atoms: _176  and  _179
REMARK   80  A    between atoms: _179  and  _180
REMARK   81  A    between atoms: _185  and  _186
REMARK   82  A    between atoms: _188  and  _190
REMARK   83  A    between atoms: _190  and  _191
REMARK   84  A    between atoms: _190  and  _193
REMARK   85  A    between atoms: _195  and  _197
REMARK   86  A    between atoms: _197  and  _198
REMARK   87  A    between atoms: _197  and  _200
REMARK   88  A    between atoms: _200  and  _201
REMARK   89  A    between atoms: _204  and  _206
REMARK   90  A    between atoms: _206  and  _207
REMARK   91  A    between atoms: _206  and  _209
REMARK   92  A    between atoms: _209  and  _210
REMARK   93  A    between atoms: _213  and  _215
REMARK   94  A    between atoms: _215  and  _216
REMARK   95  A    between atoms: _215  and  _218
REMARK   96  A    between atoms: _218  and  _219
REMARK   97  A    between atoms: _219  and  _220
REMARK   98  A    between atoms: _220  and  _221
REMARK   99  A    between atoms: _221  and  _222
REMARK  100  A    between atoms: _226  and  _228
REMARK  101  A    between atoms: _228  and  _229
REMARK  102  A    between atoms: _228  and  _231
REMARK  103  A    between atoms: _231  and  _232
REMARK  104  A    between atoms: _232  and  _233
REMARK  105  A    between atoms: _233  and  _234
REMARK  106  A    between atoms: _234  and  _235
REMARK  107  A    between atoms: _239  and  _241
REMARK  108  A    between atoms: _241  and  _242
REMARK  109  A    between atoms: _241  and  _244
REMARK  110  A    between atoms: _244  and  _245
REMARK  111  A    between atoms: _245  and  _246
REMARK  112  A    between atoms: _246  and  _247
REMARK  113  A    between atoms: _256  and  _258
REMARK  114  A    between atoms: _258  and  _259
REMARK  115  A    between atoms: _258  and  _261
REMARK  116  A    between atoms: _261  and  _262
REMARK  117  A    between atoms: _265  and  _267
REMARK  118  A    between atoms: _267  and  _268
REMARK  119  A    between atoms: _271  and  _273
REMARK  120  A    between atoms: _273  and  _274
REMARK  121  A    between atoms: _273  and  _276
REMARK  122  A    between atoms: _276  and  _277
REMARK  123  A    between atoms: _277  and  _278
REMARK  124  A    between atoms: _283  and  _285
REMARK  125  A    between atoms: _285  and  _286
REMARK  126  A    between atoms: _285  and  _288
REMARK  127  A    between atoms: _288  and  _289
REMARK  128  A    between atoms: _289  and  _290
REMARK  129  A    between atoms: _293  and  _295
REMARK  130  A    between atoms: _295  and  _296
REMARK  131  A    between atoms: _298  and  _300
REMARK  132  A    between atoms: _300  and  _301
REMARK  133  A    between atoms: _300  and  _303
REMARK  134  A    between atoms: _305  and  _307
REMARK  135  A    between atoms: _307  and  _308
REMARK  136  A    between atoms: _307  and  _310
REMARK  137  A    between atoms: _310  and  _311
REMARK  138  A    between atoms: _314  and  _316
REMARK  139  A    between atoms: _316  and  _317
REMARK  140  A    between atoms: _316  and  _319
REMARK  141  A    between atoms: _322  and  _324
REMARK  142  A    between atoms: _324  and  _325
REMARK  143  A    between atoms: _328  and  _330
REMARK  144  A    between atoms: _330  and  _331
REMARK  145  A    between atoms: _330  and  _333
REMARK  146  A    between atoms: _333  and  _334
REMARK  147  A    between atoms: _336  and  _338
REMARK  148  A    between atoms: _338  and  _339
REMARK  149  A    between atoms: _338  and  _341
REMARK  150  A    between atoms: _341  and  _342
REMARK  151  A    between atoms: _345  and  _347
REMARK  152  A    between atoms: _347  and  _348
REMARK  153  A    between atoms: _347  and  _350
REMARK  154  A    between atoms: _350  and  _351
REMARK  155  A    between atoms: _356  and  _358
REMARK  156  A    between atoms: _358  and  _359
REMARK  157  A    between atoms: _358  and  _361
REMARK  158  A    between atoms: _361  and  _362
REMARK  159  A    between atoms: _362  and  _363
REMARK  160  A    between atoms: _363  and  _364
REMARK  161  A    between atoms: _373  and  _375
REMARK  162  A    between atoms: _375  and  _376
REMARK  163  A    between atoms: _378  and  _380
REMARK  164  A    between atoms: _380  and  _381
REMARK  165  A    between atoms: _380  and  _383
REMARK  166  A    between atoms: _386  and  _388
REMARK  167  A    between atoms: _388  and  _389
REMARK  168  A    between atoms: _388  and  _391
REMARK  169  A    between atoms: _391  and  _392
REMARK  170  A    between atoms: _395  and  _397
REMARK  171  A    between atoms: _397  and  _398
REMARK  172  A    between atoms: _397  and  _400
REMARK  173  A    between atoms: _400  and  _401
REMARK  174  A    between atoms: _401  and  _402
REMARK  175  A    between atoms: _402  and  _403
REMARK  176  A    between atoms: _403  and  _404
REMARK  177  A    between atoms: _408  and  _410
REMARK  178  A    between atoms: _410  and  _411
REMARK  179  A    between atoms: _410  and  _413
REMARK  180  A    between atoms: _413  and  _414
REMARK  181  A    between atoms: _414  and  _415
REMARK  182  A    between atoms: _415  and  _416
REMARK  183  A    between atoms: _416  and  _417
REMARK  184  A    between atoms: _421  and  _423
REMARK  185  A    between atoms: _423  and  _424
REMARK  186  A    between atoms: _423  and  _426
REMARK  187  A    between atoms: _426  and  _427
REMARK  188  A    between atoms: _432  and  _434
REMARK  189  A    between atoms: _434  and  _435
REMARK  190  A    between atoms: _434  and  _437
REMARK  191  A    between atoms: _437  and  _438
REMARK  192  A    between atoms: _443  and  _445
REMARK  193  A    between atoms: _445  and  _446
REMARK  194  A    between atoms: _449  and  _451
REMARK  195  A    between atoms: _451  and  _452
REMARK  196  A    between atoms: _451  and  _454
REMARK  197  A    between atoms: _454  and  _455
REMARK  198  A    between atoms: _460  and  _462
REMARK  199  A    between atoms: _462  and  _463
REMARK  200  A    between atoms: _466  and  _468
REMARK  201  A    between atoms: _468  and  _469
REMARK  202  A    between atoms: _472  and  _474
REMARK  203  A    between atoms: _474  and  _475
REMARK  204  A    between atoms: _474  and  _477
REMARK  205  A    between atoms: _477  and  _478
REMARK  206  A    between atoms: _483  and  _485
REMARK  207  A    between atoms: _485  and  _486
REMARK  208  A    between atoms: _485  and  _488
REMARK  209  A    between atoms: _488  and  _489
REMARK  210  A    between atoms: _492  and  _494
REMARK  211  A    between atoms: _494  and  _495
REMARK  212  A    between atoms: _497  and  _499
REMARK  213  A    between atoms: _499  and  _500
REMARK  214  A    between atoms: _499  and  _502
REMARK  215  A    between atoms: _502  and  _503
REMARK  216  A    between atoms: _503  and  _504
REMARK  217  A    between atoms: _507  and  _509
REMARK  218  A    between atoms: _509  and  _510
REMARK  219  A    between atoms: _509  and  _512
REMARK  220  A    between atoms: _512  and  _513
REMARK  221  A    between atoms: _516  and  _518
REMARK  222  A    between atoms: _518  and  _519
REMARK  223  A    between atoms: _518  and  _521
REMARK  224  A    between atoms: _521  and  _522
REMARK  225  A    between atoms: _524  and  _526
REMARK  226  A    between atoms: _526  and  _527
REMARK  227  A    between atoms: _526  and  _529
REMARK  228  A    between atoms: _529  and  _530
REMARK  229  A    between atoms: _533  and  _535
REMARK  230  A    between atoms: _535  and  _536
REMARK  231  A    between atoms: _535  and  _538
REMARK  232  A    between atoms: _538  and  _539
REMARK  233  A    between atoms: _539  and  _540
REMARK  234  A    between atoms: _542  and  _544
REMARK  235  A    between atoms: _544  and  _545
REMARK  236  A    between atoms: _548  and  _550
REMARK  237  A    between atoms: _550  and  _551
REMARK  238  A    between atoms: _554  and  _556
REMARK  239  A    between atoms: _556  and  _557
REMARK  240  A    between atoms: _556  and  _559
REMARK  241  A    between atoms: _559  and  _560
REMARK  242  A    between atoms: _563  and  _565
REMARK  243  A    between atoms: _565  and  _566
REMARK  244  A    between atoms: _569  and  _571
REMARK  245  A    between atoms: _571  and  _572
REMARK                            x       y       z     vdW  Elec       q    Type
REMARK                         _______ _______ _______ _____ _____    ______ ____
ROOT
ATOM      1  CA  MET A   1      79.477  -6.284  -5.193  0.00  0.00    +0.134 C 
ENDROOT
BRANCH   1   2
ATOM      2  N   MET A   1      79.860  -6.747  -6.526  0.00  0.00    -0.239 NA
ATOM      3  H   MET A   1      80.676  -6.309  -6.999  0.00  0.00    +0.142 HD
ENDBRANCH   1   2
BRANCH   1   4
ATOM      4  C   MET A   1      78.055  -5.735  -5.259  0.00  0.00    +0.224 C 
ATOM      5  O   MET A   1      77.251  -5.950  -4.350  0.00  0.00    -0.287 OA
ENDBRANCH   1   4
BRANCH   1   6
ATOM      6  CB  MET A   1      80.451  -5.218  -4.692  0.00  0.00    +0.037 C 
BRANCH   6   7
ATOM      7  CG  MET A   1      80.203  -4.769  -3.261  0.00  0.00    +0.059 C 
BRANCH   7   8
ATOM      8  SD  MET A   1      79.277  -3.228  -3.183  0.00  0.00    -0.139 S 
ATOM      9  CE  MET A   1      80.537  -2.054  -3.667  0.00  0.00    +0.069 C 
ENDBRANCH   7   8
ENDBRANCH   6   7
ENDBRANCH   1   6
TORSDOF 5
REMARK  Name = ../refined-set-2016/3ccz/3ccz_pocket.pdb
REMARK  245 active torsions:
REMARK  status: ('A' for Active; 'I' for Inactive)
REMARK    1  A    between atoms: _1  and  _3
REMARK    2  A    between atoms: _3  and  _4
REMARK    3  A    between atoms: _3  and  _6
REMARK    4  A    between atoms: _6  and  _7
REMARK    5  A    between atoms: _7  and  _8
REMARK    6  A    between atoms: _11  and  _13
REMARK    7  A    between atoms: _13  and  _14
REMARK    8  A    between atoms: _13  and  _16
REMARK    9  A    between atoms: _16  and  _17
REMARK   10  A    between atoms: _20  and  _22
REMARK   11  A    between atoms: _22  and  _23
REMARK   12  A    between atoms: _22  and  _25
REMARK   13  A    between atoms: _25  and  _26
REMARK   14  A    between atoms: _26  and  _27
REMARK   15  A    between atoms: _27  and  _28
REMARK   16  A    between atoms: _37  and  _39
REMARK   17  A    between atoms: _39  and  _40
REMARK   18  A    between atoms: _43  and  _44
REMARK   19  A    between atoms: _49  and  _51
REMARK   20  A    between atoms: _51  and  _52
REMARK   21  A    between atoms: _51  and  _54
REMARK   22  A    between atoms: _54  and  _55
REMARK   23  A    between atoms: _55  and  _56
REMARK   24  A    between atoms: _58  and  _60
REMARK   25  A    between atoms: _60  and  _61
REMARK   26  A    between atoms: _60  and  _63
REMARK   27  A    between atoms: _63  and  _64
REMARK   28  A    between atoms: _64  and  _65
REMARK   29  A    between atoms: _67  and  _69
REMARK   30  A    between atoms: _69  and  _70
REMARK   31  A    between atoms: _69  and  _72
REMARK   32  A    between atoms: _72  and  _73
REMARK   33  A    between atoms: _78  and  _80
REMARK   34  A    between atoms: _80  and  _81
REMARK   35  A    between atoms: _80  and  _83
REMARK   36  A    between atoms: _83  and  _84
REMARK   37  A    between atoms: _84  and  _85
REMARK   38  A    between atoms: _87  and  _89
REMARK   39  A    between atoms: _89  and  _90
REMARK   40  A    between atoms: _89  and  _92
REMARK   41  A    between atoms: _92  and  _93
REMARK   42  A    between atoms: _96  and  _98
REMARK   43  A    between atoms: _98  and  _99
REMARK   44  A    between atoms: _98  and  _101
REMARK   45  A    between atoms: _101  and  _102
REMARK   46  A    between atoms: _104  and  _106
REMARK   47  A    between atoms: _106  and  _107
REMARK   48  A    between atoms: _106  and  _109
REMARK   49  A    between atoms: _109  and  _110
REMARK   50  A    between atoms: _110  and  _111
REMARK   51  A    between atoms: _111  and  _112
REMARK   52  A    between atoms: _112  and  _113
REMARK   53  A    between atoms: _117  and  _119
REMARK   54  A    between atoms: _119  and  _120
REMARK   55  A    between atoms: _119  and  _122
REMARK   56  A    between atoms: _122  and  _123
REMARK   57  A    between atoms: _126  and  _128
REMARK   58  A    between atoms: _128  and  _129
REMARK   59  A    between atoms: _128  and  _131
REMARK   60  A    between atoms: _131  and  _132
REMARK   61  A    between atoms: _132  and  _133
REMARK   62  A    between atoms: _136  and  _138
REMARK   63  A    between atoms: _138  and  _139
REMARK   64  A    between atoms: _142  and  _144
REMARK   65  A    between atoms: _144  and  _145
REMARK   66  A    between atoms: _144  and  _147
REMARK   67  A    between atoms: _150  and  _152
REMARK   68  A    between atoms: _152  and  _153
REMARK   69  A    between atoms: _152  and  _155
REMARK   70  A    between atoms: _155  and  _156
REMARK   71  A    between atoms: _158  and  _160
REMARK   72  A    between atoms: _160  and  _161
REMARK   73  A    between atoms: _163  and  _165
REMARK   74  A    between atoms: _165  and  _166
REMARK   75  A    between atoms: _165  and  _168
REMARK   76  A    between atoms: _168  and  _169
REMARK   77  A    between atoms: _174  and  _176
REMARK   78  A    between atoms: _176  and  _177
REMARK   79  A    between atoms: _176  and  _179
REMARK   80  A    between atoms: _179  and  _180
REMARK   81  A    between atoms: _185  and  _186
REMARK   82  A    between atoms: _188  and  _190
REMARK   83  A    between atoms: _190  and  _191
REMARK   84  A    between atoms: _190  and  _193
REMARK   85  A    between atoms: _195  and  _197
REMARK   86  A    between atoms: _197  and  _198
REMARK   87  A    between atoms: _197  and  _200
REMARK   88  A    between atoms: _200  and  _201
REMARK   89  A    between atoms: _204  and  _206
REMARK   90  A    between atoms: _206  and  _207
REMARK   91  A    between atoms: _206  and  _209
REMARK   92  A    between atoms: _209  and  _210
REMARK   93  A    between atoms: _213  and  _215
REMARK   94  A    between atoms: _215  and  _216
REMARK   95  A    between atoms: _215  and  _218
REMARK   96  A    between atoms: _218  and  _219
REMARK   97  A    between atoms: _219  and  _220
REMARK   98  A    between atoms: _220  and  _221
REMARK   99  A    between atoms: _221  and  _222
REMARK  100  A    between atoms: _226  and  _228
REMARK  101  A    between atoms: _228  and  _229
REMARK  102  A    between atoms: _228  and  _231
REMARK  103  A    between atoms: _231  and  _232
REMARK  104  A    between atoms: _232  and  _233
REMARK  105  A    between atoms: _233  and  _234
REMARK  106  A    between atoms: _234  and  _235
REMARK  107  A    between atoms: _239  and  _241
REMARK  108  A    between atoms: _241  and  _242
REMARK  109  A    between atoms: _241  and  _244
REMARK  110  A    between atoms: _244  and  _245
REMARK  111  A    between atoms: _245  and  _246
REMARK  112  A    between atoms: _246  and  _247
REMARK  113  A    between atoms: _256  and  _258
REMARK  114  A    between atoms: _258  and  _259
REMARK  115  A    between atoms: _258  and  _261
REMARK  116  A    between atoms: _261  and  _262
REMARK  117  A    between atoms: _265  and  _267
REMARK  118  A    between atoms: _267  and  _268
REMARK  119  A    between atoms: _271  and  _273
REMARK  120  A    between atoms: _273  and  _274
REMARK  121  A    between atoms: _273  and  _276
REMARK  122  A    between atoms: _276  and  _277
REMARK  123  A    between atoms: _277  and  _278
REMARK  124  A    between atoms: _283  and  _285
REMARK  125  A    between atoms: _285  and  _286
REMARK  126  A    between atoms: _285  and  _288
REMARK  127  A    between atoms: _288  and  _289
REMARK  128  A    between atoms: _289  and  _290
REMARK  129  A    between atoms: _293  and  _295
REMARK  130  A    between atoms: _295  and  _296
REMARK  131  A    between atoms: _298  and  _300
REMARK  132  A    between atoms: _300  and  _301
REMARK  133  A    between atoms: _300  and  _303
REMARK  134  A    between atoms: _305  and  _307
REMARK  135  A    between atoms: _307  and  _308
REMARK  136  A    between atoms: _307  and  _310
REMARK  137  A    between atoms: _310  and  _311
REMARK  138  A    between atoms: _314  and  _316
REMARK  139  A    between atoms: _316  and  _317
REMARK  140  A    between atoms: _316  and  _319
REMARK  141  A    between atoms: _322  and  _324
REMARK  142  A    between atoms: _324  and  _325
REMARK  143  A    between atoms: _328  and  _330
REMARK  144  A    between atoms: _330  and  _331
REMARK  145  A    between atoms: _330  and  _333
REMARK  146  A    between atoms: _333  and  _334
REMARK  147  A    between atoms: _336  and  _338
REMARK  148  A    between atoms: _338  and  _339
REMARK  149  A    between atoms: _338  and  _341
REMARK  150  A    between atoms: _341  and  _342
REMARK  151  A    between atoms: _345  and  _347
REMARK  152  A    between atoms: _347  and  _348
REMARK  153  A    between atoms: _347  and  _350
REMARK  154  A    between atoms: _350  and  _351
REMARK  155  A    between atoms: _356  and  _358
REMARK  156  A    between atoms: _358  and  _359
REMARK  157  A    between atoms: _358  and  _361
REMARK  158  A    between atoms: _361  and  _362
REMARK  159  A    between atoms: _362  and  _363
REMARK  160  A    between atoms: _363  and  _364
REMARK  161  A    between atoms: _373  and  _375
REMARK  162  A    between atoms: _375  and  _376
REMARK  163  A    between atoms: _378  and  _380
REMARK  164  A    between atoms: _380  and  _381
REMARK  165  A    between atoms: _380  and  _383
REMARK  166  A    between atoms: _386  and  _388
REMARK  167  A    between atoms: _388  and  _389
REMARK  168  A    between atoms: _388  and  _391
REMARK  169  A    between atoms: _391  and  _392
REMARK  170  A    between atoms: _395  and  _397
REMARK  171  A    between atoms: _397  and  _398
REMARK  172  A    between atoms: _397  and  _400
REMARK  173  A    between atoms: _400  and  _401
REMARK  174  A    between atoms: _401  and  _402
REMARK  175  A    between atoms: _402  and  _403
REMARK  176  A    between atoms: _403  and  _404
REMARK  177  A    between atoms: _408  and  _410
REMARK  178  A    between atoms: _410  and  _411
REMARK  179  A    between atoms: _410  and  _413
REMARK  180  A    between atoms: _413  and  _414
REMARK  181  A    between atoms: _414  and  _415
REMARK  182  A    between atoms: _415  and  _416
REMARK  183  A    between atoms: _416  and  _417
REMARK  184  A    between atoms: _421  and  _423
REMARK  185  A    between atoms: _423  and  _424
REMARK  186  A    between atoms: _423  and  _426
REMARK  187  A    between atoms: _426  and  _427
REMARK  188  A    between atoms: _432  and  _434
REMARK  189  A    between atoms: _434  and  _435
REMARK  190  A    between atoms: _434  and  _437
REMARK  191  A    between atoms: _437  and  _438
REMARK  192  A    between atoms: _443  and  _445
REMARK  193  A    between atoms: _445  and  _446
REMARK  194  A    between atoms: _449  and  _451
REMARK  195  A    between atoms: _451  and  _452
REMARK  196  A    between atoms: _451  and  _454
REMARK  197  A    between atoms: _454  and  _455
REMARK  198  A    between atoms: _460  and  _462
REMARK  199  A    between atoms: _462  and  _463
REMARK  200  A    between atoms: _466  and  _468
REMARK  201  A    between atoms: _468  and  _469
REMARK  202  A    between atoms: _472  and  _474
REMARK  203  A    between atoms: _474  and  _475
REMARK  204  A    between atoms: _474  and  _477
REMARK  205  A    between atoms: _477  and  _478
REMARK  206  A    between atoms: _483  and  _485
REMARK  207  A    between atoms: _485  and  _486
REMARK  208  A    between atoms: _485  and  _488
REMARK  209  A    between atoms: _488  and  _489
REMARK  210  A    between atoms: _492  and  _494
REMARK  211  A    between atoms: _494  and  _495
REMARK  212  A    between atoms: _497  and  _499
REMARK  213  A    between atoms: _499  and  _500
REMARK  214  A    between atoms: _499  and  _502
REMARK  215  A    between atoms: _502  and  _503
REMARK  216  A    between atoms: _503  and  _504
REMARK  217  A    between atoms: _507  and  _509
REMARK  218  A    between atoms: _509  and  _510
REMARK  219  A    between atoms: _509  and  _512
REMARK  220  A    between atoms: _512  and  _513
REMARK  221  A    between atoms: _516  and  _518
REMARK  222  A    between atoms: _518  and  _519
REMARK  223  A    between atoms: _518  and  _521
REMARK  224  A    between atoms: _521  and  _522
REMARK  225  A    between atoms: _524  and  _526
REMARK  226  A    between atoms: _526  and  _527
REMARK  227  A    between atoms: _526  and  _529
REMARK  228  A    between atoms: _529  and  _530
REMARK  229  A    between atoms: _533  and  _535
REMARK  230  A    between atoms: _535  and  _536
REMARK  231  A    between atoms: _535  and  _538
REMARK  232  A    between atoms: _538  and  _539
REMARK  233  A    between atoms: _539  and  _540
REMARK  234  A    between atoms: _542  and  _544
REMARK  235  A    between atoms: _544  and  _545
REMARK  236  A    between atoms: _548  and  _550
REMARK  237  A    between atoms: _550  and  _551
REMARK  238  A    between atoms: _554  and  _556
REMARK  239  A    between atoms: _556  and  _557
REMARK  240  A    between atoms: _556  and  _559
REMARK  241  A    between atoms: _559  and  _560
REMARK  242  A    between atoms: _563  and  _565
REMARK  243  A    between atoms: _565  and  _566
REMARK  244  A    between atoms: _569  and  _571
REMARK  245  A    between atoms: _571  and  _572
REMARK                            x       y       z     vdW  Elec       q    Type
REMARK                         _______ _______ _______ _____ _____    ______ ____
ROOT
ATOM      1  C   MET A   3      72.174  -2.125  -9.212  0.00  0.00    +0.241 C 
ATOM      2  N   ILE A   4      72.294  -2.173  -7.888  0.00  0.00    -0.297 N 
ATOM      3  H   ILE A   4      73.242  -2.293  -7.476  0.00  0.00    +0.150 HD
ATOM      4  O   MET A   3      71.094  -1.986  -9.783  0.00  0.00    -0.273 OA
ENDROOT
BRANCH   2   5
ATOM      5  CA  ILE A   4      71.147  -2.064  -6.989  0.00  0.00    +0.149 C 
BRANCH   5   6
ATOM      6  C   ILE A   4      70.656  -0.618  -6.914  0.00  0.00    +0.241 C 
ATOM      7  O   ILE A   4      69.478  -0.374  -6.666  0.00  0.00    -0.273 OA
ATOM      8  N   SER A   5      71.564   0.331  -7.131  0.00  0.00    -0.295 N 
ATOM      9  H   SER A   5      72.550   0.051  -7.305  0.00  0.00    +0.150 HD
BRANCH   8  10
ATOM     10  CA  SER A   5      71.223   1.752  -7.133  0.00  0.00    +0.178 C 
BRANCH  10  11
ATOM     11  C   SER A   5      70.410   2.114  -8.371  0.00  0.00    +0.243 C 
ATOM     12  O   SER A   5      69.483   2.917  -8.296  0.00  0.00    -0.273 OA
ATOM     13  N   LYS A   6      70.767   1.514  -9.503  0.00  0.00    -0.298 N 
ATOM     14  H   LYS A   6      71.573   0.857  -9.488  0.00  0.00    +0.150 HD
BRANCH  13  15
ATOM     15  CA  LYS A   6      70.071   1.743 -10.766  0.00  0.00    +0.137 C 
BRANCH  15  16
ATOM     16  C   LYS A   6      68.674   1.131 -10.725  0.00  0.00    +0.227 C 
ATOM     17  O   LYS A   6      67.719   1.723 -11.224  0.00  0.00    -0.286 OA
ENDBRANCH  15  16
BRANCH  15  18
ATOM     18  CB  LYS A   6      70.872   1.149 -11.928  0.00  0.00    +0.028 C 
BRANCH  18  19
ATOM     19  CG  LYS A   6      70.327   1.494 -13.308  0.00  0.00    -0.000 C 
BRANCH  19  20
ATOM     20  CD  LYS A   6      71.347   1.183 -14.400  0.00  0.00    -0.024 C 
BRANCH  20  21
ATOM     21  CE  LYS A   6      70.683   0.897 -15.741  0.00  0.00    -0.086 C 
BRANCH  21  22
ATOM     22  NZ  LYS A   6      71.614   0.218 -16.684  0.00  0.00    +0.380 N 
ATOM     23  HZ1 LYS A   6      71.924  -0.685 -16.273  0.00  0.00    -0.089 HD
ATOM     24  HZ2 LYS A   6      72.441   0.826 -16.851  0.00  0.00    -0.089 HD
ATOM     25  HZ3 LYS A   6      71.125   0.041 -17.585  0.00  0.00    -0.089 HD
ENDBRANCH  21  22
ENDBRANCH  20  21
ENDBRANCH  19  20
ENDBRANCH  18  19
ENDBRANCH  15  18
ENDBRANCH  13  15
ENDBRANCH  10  11
BRANCH  10  26
ATOM     26  CB  SER A   5      72.490   2.608  -7.088  0.00  0.00    +0.166 C 
BRANCH  26  27
ATOM     27  OG  SER A   5      73.182   2.424  -5.867  0.00  0.00    -0.380 OA
ATOM     28  H   SER A   5      73.437   1.472  -5.774  0.00  0.00    +0.211 HD
ENDBRANCH  26  27
ENDBRANCH  10  26
ENDBRANCH   8  10
ENDBRANCH   5   6
BRANCH   5  29
ATOM     29  CB  ILE A   4      71.515  -2.595  -5.575  0.00  0.00    +0.027 C 
ATOM     30  CG2 ILE A   4      70.391  -2.333  -4.568  0.00  0.00    +0.002 C 
BRANCH  29  31
ATOM     31  CG1 ILE A   4      71.845  -4.093  -5.631  0.00  0.00    +0.002 C 
ATOM     32  CD1 ILE A   4      70.655  -5.004  -5.830  0.00  0.00    +0.000 C 
ENDBRANCH  29  31
ENDBRANCH   5  29
ENDBRANCH   2   5
BRANCH   1  33
ATOM     33  CA  MET A   3      73.472  -2.248 -10.016  0.00  0.00    +0.149 C 
BRANCH  33  35
ATOM     34  C   ASN A   2      74.586  -0.168  -9.354  0.00  0.00    +0.241 C 
ATOM     35  N   MET A   3      74.565  -1.499  -9.397  0.00  0.00    -0.297 N 
ATOM     36  H   MET A   3      75.356  -2.026  -8.974  0.00  0.00    +0.150 HD
ATOM     37  O   ASN A   2      73.691   0.532  -9.824  0.00  0.00    -0.273 OA
BRANCH  34  38
ATOM     38  CA  ASN A   2      75.794   0.477  -8.672  0.00  0.00    +0.158 C 
BRANCH  38  41
ATOM     39  C   MET A   1      75.591  -0.355  -6.383  0.00  0.00    +0.238 C 
ATOM     40  O   MET A   1      74.528   0.235  -6.211  0.00  0.00    -0.274 OA
ATOM     41  N   ASN A   2      76.275  -0.296  -7.524  0.00  0.00    -0.297 N 
ATOM     42  H   ASN A   2      77.174  -0.812  -7.602  0.00  0.00    +0.150 HD
BRANCH  39  43
ATOM     43  CA  MET A   1      76.184  -1.213  -5.263  0.00  0.00    +0.146 C 
BRANCH  43  44
ATOM     44  N   MET A   1      76.677  -2.498  -5.768  0.00  0.00    -0.238 NA
ATOM     45  H   MET A   1      77.694  -2.710  -5.729  0.00  0.00    +0.142 HD
ENDBRANCH  43  44
BRANCH  43  46
ATOM     46  CB  MET A   1      77.283  -0.438  -4.518  0.00  0.00    +0.038 C 
BRANCH  46  47
ATOM     47  CG  MET A   1      77.190  -0.533  -2.995  0.00  0.00    +0.060 C 
BRANCH  47  48
ATOM     48  SD  MET A   1      76.156   0.750  -2.243  0.00  0.00    -0.139 S 
ATOM     49  CE  MET A   1      74.513   0.084  -2.517  0.00  0.00    +0.069 C 
ENDBRANCH  47  48
ENDBRANCH  46  47
ENDBRANCH  43  46
ENDBRANCH  39  43
ENDBRANCH  38  41
BRANCH  38  50
ATOM     50  CB  ASN A   2      76.922   0.693  -9.689  0.00  0.00    +0.114 C 
BRANCH  50  51
ATOM     51  CG  ASN A   2      77.993   1.646  -9.180  0.00  0.00    +0.222 C 
ATOM     52  OD1 ASN A   2      77.705   2.788  -8.821  0.00  0.00    -0.275 OA
ATOM     53  ND2 ASN A   2      79.237   1.178  -9.147  0.00  0.00    -0.329 N 
ATOM     54 HD21 ASN A   2      80.012   1.784  -8.808  0.00  0.00    +0.145 HD
ATOM     55 HD22 ASN A   2      79.435   0.206  -9.460  0.00  0.00    +0.145 HD
ENDBRANCH  50  51
ENDBRANCH  38  50
ENDBRANCH  34  38
ENDBRANCH  33  35
BRANCH  33  56
ATOM     56  CB  MET A   3      73.864  -3.724 -10.151  0.00  0.00    +0.041 C 
BRANCH  56  57
ATOM     57  CG  MET A   3      72.955  -4.545 -11.052  0.00  0.00    +0.060 C 
BRANCH  57  58
ATOM     58  SD  MET A   3      72.611  -6.177 -10.369  0.00  0.00    -0.139 S 
ATOM     59  CE  MET A   3      71.359  -5.764  -9.166  0.00  0.00    +0.069 C 
ENDBRANCH  57  58
ENDBRANCH  56  57
ENDBRANCH  33  56
ENDBRANCH   1  33
TORSDOF 29
REMARK  Name = ../refined-set-2016/3ccz/3ccz_pocket.pdb
REMARK  245 active torsions:
REMARK  status: ('A' for Active; 'I' for Inactive)
REMARK    1  A    between atoms: _1  and  _3
REMARK    2  A    between atoms: _3  and  _4
REMARK    3  A    between atoms: _3  and  _6
REMARK    4  A    between atoms: _6  and  _7
REMARK    5  A    between atoms: _7  and  _8
REMARK    6  A    between atoms: _11  and  _13
REMARK    7  A    between atoms: _13  and  _14
REMARK    8  A    between atoms: _13  and  _16
REMARK    9  A    between atoms: _16  and  _17
REMARK   10  A    between atoms: _20  and  _22
REMARK   11  A    between atoms: _22  and  _23
REMARK   12  A    between atoms: _22  and  _25
REMARK   13  A    between atoms: _25  and  _26
REMARK   14  A    between atoms: _26  and  _27
REMARK   15  A    between atoms: _27  and  _28
REMARK   16  A    between atoms: _37  and  _39
REMARK   17  A    between atoms: _39  and  _40
REMARK   18  A    between atoms: _43  and  _44
REMARK   19  A    between atoms: _49  and  _51
REMARK   20  A    between atoms: _51  and  _52
REMARK   21  A    between atoms: _51  and  _54
REMARK   22  A    between atoms: _54  and  _55
REMARK   23  A    between atoms: _55  and  _56
REMARK   24  A    between atoms: _58  and  _60
REMARK   25  A    between atoms: _60  and  _61
REMARK   26  A    between atoms: _60  and  _63
REMARK   27  A    between atoms: _63  and  _64
REMARK   28  A    between atoms: _64  and  _65
REMARK   29  A    between atoms: _67  and  _69
REMARK   30  A    between atoms: _69  and  _70
REMARK   31  A    between atoms: _69  and  _72
REMARK   32  A    between atoms: _72  and  _73
REMARK   33  A    between atoms: _78  and  _80
REMARK   34  A    between atoms: _80  and  _81
REMARK   35  A    between atoms: _80  and  _83
REMARK   36  A    between atoms: _83  and  _84
REMARK   37  A    between atoms: _84  and  _85
REMARK   38  A    between atoms: _87  and  _89
REMARK   39  A    between atoms: _89  and  _90
REMARK   40  A    between atoms: _89  and  _92
REMARK   41  A    between atoms: _92  and  _93
REMARK   42  A    between atoms: _96  and  _98
REMARK   43  A    between atoms: _98  and  _99
REMARK   44  A    between atoms: _98  and  _101
REMARK   45  A    between atoms: _101  and  _102
REMARK   46  A    between atoms: _104  and  _106
REMARK   47  A    between atoms: _106  and  _107
REMARK   48  A    between atoms: _106  and  _109
REMARK   49  A    between atoms: _109  and  _110
REMARK   50  A    between atoms: _110  and  _111
REMARK   51  A    between atoms: _111  and  _112
REMARK   52  A    between atoms: _112  and  _113
REMARK   53  A    between atoms: _117  and  _119
REMARK   54  A    between atoms: _119  and  _120
REMARK   55  A    between atoms: _119  and  _122
REMARK   56  A    between atoms: _122  and  _123
REMARK   57  A    between atoms: _126  and  _128
REMARK   58  A    between atoms: _128  and  _129
REMARK   59  A    between atoms: _128  and  _131
REMARK   60  A    between atoms: _131  and  _132
REMARK   61  A    between atoms: _132  and  _133
REMARK   62  A    between atoms: _136  and  _138
REMARK   63  A    between atoms: _138  and  _139
REMARK   64  A    between atoms: _142  and  _144
REMARK   65  A    between atoms: _144  and  _145
REMARK   66  A    between atoms: _144  and  _147
REMARK   67  A    between atoms: _150  and  _152
REMARK   68  A    between atoms: _152  and  _153
REMARK   69  A    between atoms: _152  and  _155
REMARK   70  A    between atoms: _155  and  _156
REMARK   71  A    between atoms: _158  and  _160
REMARK   72  A    between atoms: _160  and  _161
REMARK   73  A    between atoms: _163  and  _165
REMARK   74  A    between atoms: _165  and  _166
REMARK   75  A    between atoms: _165  and  _168
REMARK   76  A    between atoms: _168  and  _169
REMARK   77  A    between atoms: _174  and  _176
REMARK   78  A    between atoms: _176  and  _177
REMARK   79  A    between atoms: _176  and  _179
REMARK   80  A    between atoms: _179  and  _180
REMARK   81  A    between atoms: _185  and  _186
REMARK   82  A    between atoms: _188  and  _190
REMARK   83  A    between atoms: _190  and  _191
REMARK   84  A    between atoms: _190  and  _193
REMARK   85  A    between atoms: _195  and  _197
REMARK   86  A    between atoms: _197  and  _198
REMARK   87  A    between atoms: _197  and  _200
REMARK   88  A    between atoms: _200  and  _201
REMARK   89  A    between atoms: _204  and  _206
REMARK   90  A    between atoms: _206  and  _207
REMARK   91  A    between atoms: _206  and  _209
REMARK   92  A    between atoms: _209  and  _210
REMARK   93  A    between atoms: _213  and  _215
REMARK   94  A    between atoms: _215  and  _216
REMARK   95  A    between atoms: _215  and  _218
REMARK   96  A    between atoms: _218  and  _219
REMARK   97  A    between atoms: _219  and  _220
REMARK   98  A    between atoms: _220  and  _221
REMARK   99  A    between atoms: _221  and  _222
REMARK  100  A    between atoms: _226  and  _228
REMARK  101  A    between atoms: _228  and  _229
REMARK  102  A    between atoms: _228  and  _231
REMARK  103  A    between atoms: _231  and  _232
REMARK  104  A    between atoms: _232  and  _233
REMARK  105  A    between atoms: _233  and  _234
REMARK  106  A    between atoms: _234  and  _235
REMARK  107  A    between atoms: _239  and  _241
REMARK  108  A    between atoms: _241  and  _242
REMARK  109  A    between atoms: _241  and  _244
REMARK  110  A    between atoms: _244  and  _245
REMARK  111  A    between atoms: _245  and  _246
REMARK  112  A    between atoms: _246  and  _247
REMARK  113  A    between atoms: _256  and  _258
REMARK  114  A    between atoms: _258  and  _259
REMARK  115  A    between atoms: _258  and  _261
REMARK  116  A    between atoms: _261  and  _262
REMARK  117  A    between atoms: _265  and  _267
REMARK  118  A    between atoms: _267  and  _268
REMARK  119  A    between atoms: _271  and  _273
REMARK  120  A    between atoms: _273  and  _274
REMARK  121  A    between atoms: _273  and  _276
REMARK  122  A    between atoms: _276  and  _277
REMARK  123  A    between atoms: _277  and  _278
REMARK  124  A    between atoms: _283  and  _285
REMARK  125  A    between atoms: _285  and  _286
REMARK  126  A    between atoms: _285  and  _288
REMARK  127  A    between atoms: _288  and  _289
REMARK  128  A    between atoms: _289  and  _290
REMARK  129  A    between atoms: _293  and  _295
REMARK  130  A    between atoms: _295  and  _296
REMARK  131  A    between atoms: _298  and  _300
REMARK  132  A    between atoms: _300  and  _301
REMARK  133  A    between atoms: _300  and  _303
REMARK  134  A    between atoms: _305  and  _307
REMARK  135  A    between atoms: _307  and  _308
REMARK  136  A    between atoms: _307  and  _310
REMARK  137  A    between atoms: _310  and  _311
REMARK  138  A    between atoms: _314  and  _316
REMARK  139  A    between atoms: _316  and  _317
REMARK  140  A    between atoms: _316  and  _319
REMARK  141  A    between atoms: _322  and  _324
REMARK  142  A    between atoms: _324  and  _325
REMARK  143  A    between atoms: _328  and  _330
REMARK  144  A    between atoms: _330  and  _331
REMARK  145  A    between atoms: _330  and  _333
REMARK  146  A    between atoms: _333  and  _334
REMARK  147  A    between atoms: _336  and  _338
REMARK  148  A    between atoms: _338  and  _339
REMARK  149  A    between atoms: _338  and  _341
REMARK  150  A    between atoms: _341  and  _342
REMARK  151  A    between atoms: _345  and  _347
REMARK  152  A    between atoms: _347  and  _348
REMARK  153  A    between atoms: _347  and  _350
REMARK  154  A    between atoms: _350  and  _351
REMARK  155  A    between atoms: _356  and  _358
REMARK  156  A    between atoms: _358  and  _359
REMARK  157  A    between atoms: _358  and  _361
REMARK  158  A    between atoms: _361  and  _362
REMARK  159  A    between atoms: _362  and  _363
REMARK  160  A    between atoms: _363  and  _364
REMARK  161  A    between atoms: _373  and  _375
REMARK  162  A    between atoms: _375  and  _376
REMARK  163  A    between atoms: _378  and  _380
REMARK  164  A    between atoms: _380  and  _381
REMARK  165  A    between atoms: _380  and  _383
REMARK  166  A    between atoms: _386  and  _388
REMARK  167  A    between atoms: _388  and  _389
REMARK  168  A    between atoms: _388  and  _391
REMARK  169  A    between atoms: _391  and  _392
REMARK  170  A    between atoms: _395  and  _397
REMARK  171  A    between atoms: _397  and  _398
REMARK  172  A    between atoms: _397  and  _400
REMARK  173  A    between atoms: _400  and  _401
REMARK  174  A    between atoms: _401  and  _402
REMARK  175  A    between atoms: _402  and  _403
REMARK  176  A    between atoms: _403  and  _404
REMARK  177  A    between atoms: _408  and  _410
REMARK  178  A    between atoms: _410  and  _411
REMARK  179  A    between atoms: _410  and  _413
REMARK  180  A    between atoms: _413  and  _414
REMARK  181  A    between atoms: _414  and  _415
REMARK  182  A    between atoms: _415  and  _416
REMARK  183  A    between atoms: _416  and  _417
REMARK  184  A    between atoms: _421  and  _423
REMARK  185  A    between atoms: _423  and  _424
REMARK  186  A    between atoms: _423  and  _426
REMARK  187  A    between atoms: _426  and  _427
REMARK  188  A    between atoms: _432  and  _434
REMARK  189  A    between atoms: _434  and  _435
REMARK  190  A    between atoms: _434  and  _437
REMARK  191  A    between atoms: _437  and  _438
REMARK  192  A    between atoms: _443  and  _445
REMARK  193  A    between atoms: _445  and  _446
REMARK  194  A    between atoms: _449  and  _451
REMARK  195  A    between atoms: _451  and  _452
REMARK  196  A    between atoms: _451  and  _454
REMARK  197  A    between atoms: _454  and  _455
REMARK  198  A    between atoms: _460  and  _462
REMARK  199  A    between atoms: _462  and  _463
REMARK  200  A    between atoms: _466  and  _468
REMARK  201  A    between atoms: _468  and  _469
REMARK  202  A    between atoms: _472  and  _474
REMARK  203  A    between atoms: _474  and  _475
REMARK  204  A    between atoms: _474  and  _477
REMARK  205  A    between atoms: _477  and  _478
REMARK  206  A    between atoms: _483  and  _485
REMARK  207  A    between atoms: _485  and  _486
REMARK  208  A    between atoms: _485  and  _488
REMARK  209  A    between atoms: _488  and  _489
REMARK  210  A    between atoms: _492  and  _494
REMARK  211  A    between atoms: _494  and  _495
REMARK  212  A    between atoms: _497  and  _499
REMARK  213  A    between atoms: _499  and  _500
REMARK  214  A    between atoms: _499  and  _502
REMARK  215  A    between atoms: _502  and  _503
REMARK  216  A    between atoms: _503  and  _504
REMARK  217  A    between atoms: _507  and  _509
REMARK  218  A    between atoms: _509  and  _510
REMARK  219  A    between atoms: _509  and  _512
REMARK  220  A    between atoms: _512  and  _513
REMARK  221  A    between atoms: _516  and  _518
REMARK  222  A    between atoms: _518  and  _519
REMARK  223  A    between atoms: _518  and  _521
REMARK  224  A    between atoms: _521  and  _522
REMARK  225  A    between atoms: _524  and  _526
REMARK  226  A    between atoms: _526  and  _527
REMARK  227  A    between atoms: _526  and  _529
REMARK  228  A    between atoms: _529  and  _530
REMARK  229  A    between atoms: _533  and  _535
REMARK  230  A    between atoms: _535  and  _536
REMARK  231  A    between atoms: _535  and  _538
REMARK  232  A    between atoms: _538  and  _539
REMARK  233  A    between atoms: _539  and  _540
REMARK  234  A    between atoms: _542  and  _544
REMARK  235  A    between atoms: _544  and  _545
REMARK  236  A    between atoms: _548  and  _550
REMARK  237  A    between atoms: _550  and  _551
REMARK  238  A    between atoms: _554  and  _556
REMARK  239  A    between atoms: _556  and  _557
REMARK  240  A    between atoms: _556  and  _559
REMARK  241  A    between atoms: _559  and  _560
REMARK  242  A    between atoms: _563  and  _565
REMARK  243  A    between atoms: _565  and  _566
REMARK  244  A    between atoms: _569  and  _571
REMARK  245  A    between atoms: _571  and  _572
REMARK                            x       y       z     vdW  Elec       q    Type
REMARK                         _______ _______ _______ _____ _____    ______ ____
ROOT
ATOM      1  C   THR A   1      65.647   2.687  -7.613  0.00  0.00    +0.241 C 
ATOM      2  O   THR A   1      64.540   3.082  -7.261  0.00  0.00    -0.274 OA
ATOM      3  N   GLU A   2      66.381   3.306  -8.536  0.00  0.00    -0.298 N 
ATOM      4  H   GLU A   2      67.316   2.919  -8.777  0.00  0.00    +0.150 HD
ENDROOT
BRANCH   1   5
ATOM      5  CA  THR A   1      66.247   1.424  -6.995  0.00  0.00    +0.172 C 
BRANCH   5   6
ATOM      6  N   THR A   1      66.984   0.656  -7.993  0.00  0.00    -0.236 NA
ATOM      7  H   THR A   1      68.020   0.606  -7.922  0.00  0.00    +0.142 HD
ENDBRANCH   5   6
BRANCH   5   8
ATOM      8  CB  THR A   1      67.172   1.790  -5.810  0.00  0.00    +0.135 C 
ATOM      9  CG2 THR A   1      66.440   2.633  -4.771  0.00  0.00    +0.034 C 
BRANCH   8  10
ATOM     10  OG1 THR A   1      67.542   0.603  -5.096  0.00  0.00    -0.383 OA
ATOM     11  HG1 THR A   1      68.020  -0.012  -5.707  0.00  0.00    +0.210 HD
ENDBRANCH   8  10
ENDBRANCH   5   8
ENDBRANCH   1   5
BRANCH   3  12
ATOM     12  CA  GLU A   2      65.916   4.512  -9.223  0.00  0.00    +0.137 C 
BRANCH  12  13
ATOM     13  C   GLU A   2      64.691   4.224 -10.088  0.00  0.00    +0.227 C 
ATOM     14  O   GLU A   2      63.737   5.001 -10.098  0.00  0.00    -0.286 OA
ENDBRANCH  12  13
BRANCH  12  15
ATOM     15  CB  GLU A   2      67.029   5.103 -10.095  0.00  0.00    +0.039 C 
BRANCH  15  16
ATOM     16  CG  GLU A   2      68.060   5.916  -9.333  0.00  0.00    +0.116 C 
BRANCH  16  17
ATOM     17  CD  GLU A   2      69.144   6.467 -10.239  0.00  0.00    +0.365 C 
ATOM     18  OE2 GLU A   2      70.327   6.118 -10.038  0.00  0.00    -0.246 OA
ATOM     19  OE1 GLU A   2      68.814   7.249 -11.155  0.00  0.00    -0.246 OA
ENDBRANCH  16  17
ENDBRANCH  15  16
ENDBRANCH  12  15
ENDBRANCH   3  12
TORSDOF 9
REMARK  Name = ../refined-set-2016/3ccz/3ccz_pocket.pdb
REMARK  245 active torsions:
REMARK  status: ('A' for Active; 'I' for Inactive)
REMARK    1  A    between atoms: _1  and  _3
REMARK    2  A    between atoms: _3  and  _4
REMARK    3  A    between atoms: _3  and  _6
REMARK    4  A    between atoms: _6  and  _7
REMARK    5  A    between atoms: _7  and  _8
REMARK    6  A    between atoms: _11  and  _13
REMARK    7  A    between atoms: _13  and  _14
REMARK    8  A    between atoms: _13  and  _16
REMARK    9  A    between atoms: _16  and  _17
REMARK   10  A    between atoms: _20  and  _22
REMARK   11  A    between atoms: _22  and  _23
REMARK   12  A    between atoms: _22  and  _25
REMARK   13  A    between atoms: _25  and  _26
REMARK   14  A    between atoms: _26  and  _27
REMARK   15  A    between atoms: _27  and  _28
REMARK   16  A    between atoms: _37  and  _39
REMARK   17  A    between atoms: _39  and  _40
REMARK   18  A    between atoms: _43  and  _44
REMARK   19  A    between atoms: _49  and  _51
REMARK   20  A    between atoms: _51  and  _52
REMARK   21  A    between atoms: _51  and  _54
REMARK   22  A    between atoms: _54  and  _55
REMARK   23  A    between atoms: _55  and  _56
REMARK   24  A    between atoms: _58  and  _60
REMARK   25  A    between atoms: _60  and  _61
REMARK   26  A    between atoms: _60  and  _63
REMARK   27  A    between atoms: _63  and  _64
REMARK   28  A    between atoms: _64  and  _65
REMARK   29  A    between atoms: _67  and  _69
REMARK   30  A    between atoms: _69  and  _70
REMARK   31  A    between atoms: _69  and  _72
REMARK   32  A    between atoms: _72  and  _73
REMARK   33  A    between atoms: _78  and  _80
REMARK   34  A    between atoms: _80  and  _81
REMARK   35  A    between atoms: _80  and  _83
REMARK   36  A    between atoms: _83  and  _84
REMARK   37  A    between atoms: _84  and  _85
REMARK   38  A    between atoms: _87  and  _89
REMARK   39  A    between atoms: _89  and  _90
REMARK   40  A    between atoms: _89  and  _92
REMARK   41  A    between atoms: _92  and  _93
REMARK   42  A    between atoms: _96  and  _98
REMARK   43  A    between atoms: _98  and  _99
REMARK   44  A    between atoms: _98  and  _101
REMARK   45  A    between atoms: _101  and  _102
REMARK   46  A    between atoms: _104  and  _106
REMARK   47  A    between atoms: _106  and  _107
REMARK   48  A    between atoms: _106  and  _109
REMARK   49  A    between atoms: _109  and  _110
REMARK   50  A    between atoms: _110  and  _111
REMARK   51  A    between atoms: _111  and  _112
REMARK   52  A    between atoms: _112  and  _113
REMARK   53  A    between atoms: _117  and  _119
REMARK   54  A    between atoms: _119  and  _120
REMARK   55  A    between atoms: _119  and  _122
REMARK   56  A    between atoms: _122  and  _123
REMARK   57  A    between atoms: _126  and  _128
REMARK   58  A    between atoms: _128  and  _129
REMARK   59  A    between atoms: _128  and  _131
REMARK   60  A    between atoms: _131  and  _132
REMARK   61  A    between atoms: _132  and  _133
REMARK   62  A    between atoms: _136  and  _138
REMARK   63  A    between atoms: _138  and  _139
REMARK   64  A    between atoms: _142  and  _144
REMARK   65  A    between atoms: _144  and  _145
REMARK   66  A    between atoms: _144  and  _147
REMARK   67  A    between atoms: _150  and  _152
REMARK   68  A    between atoms: _152  and  _153
REMARK   69  A    between atoms: _152  and  _155
REMARK   70  A    between atoms: _155  and  _156
REMARK   71  A    between atoms: _158  and  _160
REMARK   72  A    between atoms: _160  and  _161
REMARK   73  A    between atoms: _163  and  _165
REMARK   74  A    between atoms: _165  and  _166
REMARK   75  A    between atoms: _165  and  _168
REMARK   76  A    between atoms: _168  and  _169
REMARK   77  A    between atoms: _174  and  _176
REMARK   78  A    between atoms: _176  and  _177
REMARK   79  A    between atoms: _176  and  _179
REMARK   80  A    between atoms: _179  and  _180
REMARK   81  A    between atoms: _185  and  _186
REMARK   82  A    between atoms: _188  and  _190
REMARK   83  A    between atoms: _190  and  _191
REMARK   84  A    between atoms: _190  and  _193
REMARK   85  A    between atoms: _195  and  _197
REMARK   86  A    between atoms: _197  and  _198
REMARK   87  A    between atoms: _197  and  _200
REMARK   88  A    between atoms: _200  and  _201
REMARK   89  A    between atoms: _204  and  _206
REMARK   90  A    between atoms: _206  and  _207
REMARK   91  A    between atoms: _206  and  _209
REMARK   92  A    between atoms: _209  and  _210
REMARK   93  A    between atoms: _213  and  _215
REMARK   94  A    between atoms: _215  and  _216
REMARK   95  A    between atoms: _215  and  _218
REMARK   96  A    between atoms: _218  and  _219
REMARK   97  A    between atoms: _219  and  _220
REMARK   98  A    between atoms: _220  and  _221
REMARK   99  A    between atoms: _221  and  _222
REMARK  100  A    between atoms: _226  and  _228
REMARK  101  A    between atoms: _228  and  _229
REMARK  102  A    between atoms: _228  and  _231
REMARK  103  A    between atoms: _231  and  _232
REMARK  104  A    between atoms: _232  and  _233
REMARK  105  A    between atoms: _233  and  _234
REMARK  106  A    between atoms: _234  and  _235
REMARK  107  A    between atoms: _239  and  _241
REMARK  108  A    between atoms: _241  and  _242
REMARK  109  A    between atoms: _241  and  _244
REMARK  110  A    between atoms: _244  and  _245
REMARK  111  A    between atoms: _245  and  _246
REMARK  112  A    between atoms: _246  and  _247
REMARK  113  A    between atoms: _256  and  _258
REMARK  114  A    between atoms: _258  and  _259
REMARK  115  A    between atoms: _258  and  _261
REMARK  116  A    between atoms: _261  and  _262
REMARK  117  A    between atoms: _265  and  _267
REMARK  118  A    between atoms: _267  and  _268
REMARK  119  A    between atoms: _271  and  _273
REMARK  120  A    between atoms: _273  and  _274
REMARK  121  A    between atoms: _273  and  _276
REMARK  122  A    between atoms: _276  and  _277
REMARK  123  A    between atoms: _277  and  _278
REMARK  124  A    between atoms: _283  and  _285
REMARK  125  A    between atoms: _285  and  _286
REMARK  126  A    between atoms: _285  and  _288
REMARK  127  A    between atoms: _288  and  _289
REMARK  128  A    between atoms: _289  and  _290
REMARK  129  A    between atoms: _293  and  _295
REMARK  130  A    between atoms: _295  and  _296
REMARK  131  A    between atoms: _298  and  _300
REMARK  132  A    between atoms: _300  and  _301
REMARK  133  A    between atoms: _300  and  _303
REMARK  134  A    between atoms: _305  and  _307
REMARK  135  A    between atoms: _307  and  _308
REMARK  136  A    between atoms: _307  and  _310
REMARK  137  A    between atoms: _310  and  _311
REMARK  138  A    between atoms: _314  and  _316
REMARK  139  A    between atoms: _316  and  _317
REMARK  140  A    between atoms: _316  and  _319
REMARK  141  A    between atoms: _322  and  _324
REMARK  142  A    between atoms: _324  and  _325
REMARK  143  A    between atoms: _328  and  _330
REMARK  144  A    between atoms: _330  and  _331
REMARK  145  A    between atoms: _330  and  _333
REMARK  146  A    between atoms: _333  and  _334
REMARK  147  A    between atoms: _336  and  _338
REMARK  148  A    between atoms: _338  and  _339
REMARK  149  A    between atoms: _338  and  _341
REMARK  150  A    between atoms: _341  and  _342
REMARK  151  A    between atoms: _345  and  _347
REMARK  152  A    between atoms: _347  and  _348
REMARK  153  A    between atoms: _347  and  _350
REMARK  154  A    between atoms: _350  and  _351
REMARK  155  A    between atoms: _356  and  _358
REMARK  156  A    between atoms: _358  and  _359
REMARK  157  A    between atoms: _358  and  _361
REMARK  158  A    between atoms: _361  and  _362
REMARK  159  A    between atoms: _362  and  _363
REMARK  160  A    between atoms: _363  and  _364
REMARK  161  A    between atoms: _373  and  _375
REMARK  162  A    between atoms: _375  and  _376
REMARK  163  A    between atoms: _378  and  _380
REMARK  164  A    between atoms: _380  and  _381
REMARK  165  A    between atoms: _380  and  _383
REMARK  166  A    between atoms: _386  and  _388
REMARK  167  A    between atoms: _388  and  _389
REMARK  168  A    between atoms: _388  and  _391
REMARK  169  A    between atoms: _391  and  _392
REMARK  170  A    between atoms: _395  and  _397
REMARK  171  A    between atoms: _397  and  _398
REMARK  172  A    between atoms: _397  and  _400
REMARK  173  A    between atoms: _400  and  _401
REMARK  174  A    between atoms: _401  and  _402
REMARK  175  A    between atoms: _402  and  _403
REMARK  176  A    between atoms: _403  and  _404
REMARK  177  A    between atoms: _408  and  _410
REMARK  178  A    between atoms: _410  and  _411
REMARK  179  A    between atoms: _410  and  _413
REMARK  180  A    between atoms: _413  and  _414
REMARK  181  A    between atoms: _414  and  _415
REMARK  182  A    between atoms: _415  and  _416
REMARK  183  A    between atoms: _416  and  _417
REMARK  184  A    between atoms: _421  and  _423
REMARK  185  A    between atoms: _423  and  _424
REMARK  186  A    between atoms: _423  and  _426
REMARK  187  A    between atoms: _426  and  _427
REMARK  188  A    between atoms: _432  and  _434
REMARK  189  A    between atoms: _434  and  _435
REMARK  190  A    between atoms: _434  and  _437
REMARK  191  A    between atoms: _437  and  _438
REMARK  192  A    between atoms: _443  and  _445
REMARK  193  A    between atoms: _445  and  _446
REMARK  194  A    between atoms: _449  and  _451
REMARK  195  A    between atoms: _451  and  _452
REMARK  196  A    between atoms: _451  and  _454
REMARK  197  A    between atoms: _454  and  _455
REMARK  198  A    between atoms: _460  and  _462
REMARK  199  A    between atoms: _462  and  _463
REMARK  200  A    between atoms: _466  and  _468
REMARK  201  A    between atoms: _468  and  _469
REMARK  202  A    between atoms: _472  and  _474
REMARK  203  A    between atoms: _474  and  _475
REMARK  204  A    between atoms: _474  and  _477
REMARK  205  A    between atoms: _477  and  _478
REMARK  206  A    between atoms: _483  and  _485
REMARK  207  A    between atoms: _485  and  _486
REMARK  208  A    between atoms: _485  and  _488
REMARK  209  A    between atoms: _488  and  _489
REMARK  210  A    between atoms: _492  and  _494
REMARK  211  A    between atoms: _494  and  _495
REMARK  212  A    between atoms: _497  and  _499
REMARK  213  A    between atoms: _499  and  _500
REMARK  214  A    between atoms: _499  and  _502
REMARK  215  A    between atoms: _502  and  _503
REMARK  216  A    between atoms: _503  and  _504
REMARK  217  A    between atoms: _507  and  _509
REMARK  218  A    between atoms: _509  and  _510
REMARK  219  A    between atoms: _509  and  _512
REMARK  220  A    between atoms: _512  and  _513
REMARK  221  A    between atoms: _516  and  _518
REMARK  222  A    between atoms: _518  and  _519
REMARK  223  A    between atoms: _518  and  _521
REMARK  224  A    between atoms: _521  and  _522
REMARK  225  A    between atoms: _524  and  _526
REMARK  226  A    between atoms: _526  and  _527
REMARK  227  A    between atoms: _526  and  _529
REMARK  228  A    between atoms: _529  and  _530
REMARK  229  A    between atoms: _533  and  _535
REMARK  230  A    between atoms: _535  and  _536
REMARK  231  A    between atoms: _535  and  _538
REMARK  232  A    between atoms: _538  and  _539
REMARK  233  A    between atoms: _539  and  _540
REMARK  234  A    between atoms: _542  and  _544
REMARK  235  A    between atoms: _544  and  _545
REMARK  236  A    between atoms: _548  and  _550
REMARK  237  A    between atoms: _550  and  _551
REMARK  238  A    between atoms: _554  and  _556
REMARK  239  A    between atoms: _556  and  _557
REMARK  240  A    between atoms: _556  and  _559
REMARK  241  A    between atoms: _559  and  _560
REMARK  242  A    between atoms: _563  and  _565
REMARK  243  A    between atoms: _565  and  _566
REMARK  244  A    between atoms: _569  and  _571
REMARK  245  A    between atoms: _571  and  _572
REMARK                            x       y       z     vdW  Elec       q    Type
REMARK                         _______ _______ _______ _____ _____    ______ ____
ROOT
ATOM      1  C   TYR A   6      69.412   1.414   4.854  0.00  0.00    +0.241 C 
ATOM      2  O   TYR A   6      68.834   0.337   5.009  0.00  0.00    -0.273 OA
ATOM      3  N   CYS A   7      70.513   1.542   4.112  0.00  0.00    -0.296 N 
ATOM      4  H   CYS A   7      70.999   2.461   4.082  0.00  0.00    +0.150 HD
ENDROOT
BRANCH   1   5
ATOM      5  CA  TYR A   6      68.895   2.680   5.546  0.00  0.00    +0.153 C 
BRANCH   5   8
ATOM      6  C   ASN A   5      70.575   4.430   5.842  0.00  0.00    +0.241 C 
ATOM      7  O   ASN A   5      70.910   3.994   6.945  0.00  0.00    -0.273 OA
ATOM      8  N   TYR A   6      69.624   3.863   5.101  0.00  0.00    -0.297 N 
ATOM      9  H   TYR A   6      69.394   4.277   4.175  0.00  0.00    +0.150 HD
BRANCH   6  10
ATOM     10  CA  ASN A   5      71.283   5.650   5.237  0.00  0.00    +0.158 C 
BRANCH  10  13
ATOM     11  C   GLY A   4      69.353   6.921   4.362  0.00  0.00    +0.243 C 
ATOM     12  O   GLY A   4      68.786   6.956   5.451  0.00  0.00    -0.273 OA
ATOM     13  N   ASN A   5      70.535   6.333   4.171  0.00  0.00    -0.297 N 
ATOM     14  H   ASN A   5      70.950   6.359   3.218  0.00  0.00    +0.150 HD
BRANCH  11  15
ATOM     15  CA  GLY A   4      68.706   7.574   3.150  0.00  0.00    +0.176 C 
BRANCH  15  17
ATOM     16  C   SER A   3      70.001   7.456   1.081  0.00  0.00    +0.243 C 
ATOM     17  N   GLY A   4      69.086   6.943   1.899  0.00  0.00    -0.295 N 
ATOM     18  H   GLY A   4      68.623   6.051   1.631  0.00  0.00    +0.150 HD
ATOM     19  O   SER A   3      70.521   8.559   1.251  0.00  0.00    -0.273 OA
BRANCH  16  20
ATOM     20  CA  SER A   3      70.388   6.591  -0.112  0.00  0.00    +0.178 C 
BRANCH  20  22
ATOM     21  C   VAL A   2      69.027   6.566  -2.142  0.00  0.00    +0.241 C 
ATOM     22  N   SER A   3      69.891   7.193  -1.346  0.00  0.00    -0.295 N 
ATOM     23  H   SER A   3      70.223   8.142  -1.612  0.00  0.00    +0.150 HD
ATOM     24  O   VAL A   2      68.766   5.365  -2.040  0.00  0.00    -0.273 OA
BRANCH  21  25
ATOM     25  CA  VAL A   2      68.352   7.420  -3.221  0.00  0.00    +0.148 C 
BRANCH  25  28
ATOM     26  C   ALA A   1      67.551   9.229  -1.783  0.00  0.00    +0.238 C 
ATOM     27  O   ALA A   1      66.845   8.467  -1.128  0.00  0.00    -0.274 OA
ATOM     28  N   VAL A   2      68.309   8.821  -2.799  0.00  0.00    -0.297 N 
ATOM     29  H   VAL A   2      68.888   9.519  -3.308  0.00  0.00    +0.150 HD
BRANCH  26  30
ATOM     30  CA  ALA A   1      67.603  10.718  -1.444  0.00  0.00    +0.145 C 
ATOM     31  CB  ALA A   1      68.506  10.953  -0.241  0.00  0.00    +0.028 C 
BRANCH  30  32
ATOM     32  N   ALA A   1      66.264  11.245  -1.181  0.00  0.00    -0.238 NA
ATOM     33  H   ALA A   1      65.502  10.583  -0.931  0.00  0.00    +0.142 HD
ENDBRANCH  30  32
ENDBRANCH  26  30
ENDBRANCH  25  28
BRANCH  25  34
ATOM     34  CB  VAL A   2      69.064   7.247  -4.590  0.00  0.00    +0.027 C 
ATOM     35  CG2 VAL A   2      69.158   5.771  -4.975  0.00  0.00    +0.002 C 
ATOM     36  CG1 VAL A   2      68.326   8.019  -5.676  0.00  0.00    +0.002 C 
ENDBRANCH  25  34
ENDBRANCH  21  25
ENDBRANCH  20  22
BRANCH  20  37
ATOM     37  CB  SER A   3      71.905   6.433  -0.144  0.00  0.00    +0.166 C 
BRANCH  37  38
ATOM     38  OG  SER A   3      72.379   6.053   1.138  0.00  0.00    -0.380 OA
ATOM     39  H   SER A   3      73.363   5.953   1.108  0.00  0.00    +0.211 HD
ENDBRANCH  37  38
ENDBRANCH  20  37
ENDBRANCH  16  20
ENDBRANCH  15  17
ENDBRANCH  11  15
ENDBRANCH  10  13
BRANCH  10  40
ATOM     40  CB  ASN A   5      71.695   6.643   6.339  0.00  0.00    +0.114 C 
BRANCH  40  41
ATOM     41  CG  ASN A   5      72.964   7.405   6.001  0.00  0.00    +0.222 C 
ATOM     42  ND2 ASN A   5      73.445   8.193   6.955  0.00  0.00    -0.329 N 
ATOM     43 HD21 ASN A   5      72.953   8.264   7.868  0.00  0.00    +0.145 HD
ATOM     44 HD22 ASN A   5      74.314   8.740   6.789  0.00  0.00    +0.145 HD
ATOM     45  OD1 ASN A   5      73.510   7.286   4.900  0.00  0.00    -0.275 OA
ENDBRANCH  40  41
ENDBRANCH  10  40
ENDBRANCH   6  10
ENDBRANCH   5   8
BRANCH   5  46
ATOM     46  CB  TYR A   6      67.396   2.866   5.282  0.00  0.00    +0.055 C 
BRANCH  46  47
ATOM     47  CG  TYR A   6      66.494   2.006   6.143  0.00  0.00    -0.020 A 
ATOM     48  CD2 TYR A   6      66.538   2.088   7.533  0.00  0.00    -0.001 A 
ATOM     49  CE2 TYR A   6      65.711   1.305   8.326  0.00  0.00    +0.036 A 
ATOM     50  CZ  TYR A   6      64.823   0.431   7.732  0.00  0.00    +0.134 A 
ATOM     51  CE1 TYR A   6      64.755   0.335   6.353  0.00  0.00    +0.036 A 
ATOM     52  CD1 TYR A   6      65.586   1.120   5.567  0.00  0.00    -0.001 A 
BRANCH  50  53
ATOM     53  OH  TYR A   6      64.007  -0.344   8.523  0.00  0.00    -0.506 OA
ATOM     54  HH  TYR A   6      63.060  -0.140   8.318  0.00  0.00    +0.292 HD
ENDBRANCH  50  53
ENDBRANCH  46  47
ENDBRANCH   5  46
ENDBRANCH   1   5
BRANCH   3  55
ATOM     55  CA  CYS A   7      71.057   0.421   3.337  0.00  0.00    +0.160 C 
BRANCH  55  56
ATOM     56  C   CYS A   7      71.636  -0.689   4.225  0.00  0.00    +0.242 C 
ATOM     57  N   THR A   8      72.583  -0.416   5.129  0.00  0.00    -0.295 N 
ATOM     58  H   THR A   8      72.832  -1.184   5.784  0.00  0.00    +0.150 HD
ATOM     59  O   CYS A   7      71.220  -1.831   4.074  0.00  0.00    -0.273 OA
BRANCH  57  60
ATOM     60  CA  THR A   8      73.307   0.842   5.298  0.00  0.00    +0.176 C 
BRANCH  60  61
ATOM     61  C   THR A   8      74.715   0.638   4.746  0.00  0.00    +0.243 C 
ATOM     62  O   THR A   8      75.335  -0.395   5.001  0.00  0.00    -0.273 OA
ATOM     63  N   ASP A   9      75.215   1.615   3.993  0.00  0.00    -0.296 N 
ATOM     64  H   ASP A   9      74.662   2.488   3.871  0.00  0.00    +0.150 HD
BRANCH  63  65
ATOM     65  CA  ASP A   9      76.513   1.505   3.331  0.00  0.00    +0.160 C 
BRANCH  65  66
ATOM     66  C   ASP A   9      77.592   2.317   4.045  0.00  0.00    +0.241 C 
ATOM     67  N   LYS A  10      78.659   1.630   4.452  0.00  0.00    -0.297 N 
ATOM     68  H   LYS A  10      78.627   0.593   4.383  0.00  0.00    +0.150 HD
ATOM     69  O   ASP A   9      77.449   3.526   4.225  0.00  0.00    -0.273 OA
BRANCH  67  70
ATOM     70  CA  LYS A  10      79.878   2.248   4.992  0.00  0.00    +0.149 C 
BRANCH  70  71
ATOM     71  C   LYS A  10      79.698   3.014   6.312  0.00  0.00    +0.241 C 
ATOM     72  N   LYS A  11      78.633   2.690   7.040  0.00  0.00    -0.298 N 
ATOM     73  H   LYS A  11      77.912   2.070   6.619  0.00  0.00    +0.150 HD
ATOM     74  O   LYS A  10      80.514   3.871   6.660  0.00  0.00    -0.273 OA
BRANCH  72  75
ATOM     75  CA  LYS A  11      78.434   3.168   8.405  0.00  0.00    +0.137 C 
BRANCH  75  76
ATOM     76  C   LYS A  11      78.005   1.984   9.271  0.00  0.00    +0.227 C 
ATOM     77  O   LYS A  11      77.360   1.057   8.775  0.00  0.00    -0.286 OA
ENDBRANCH  75  76
BRANCH  75  78
ATOM     78  CB  LYS A  11      77.346   4.242   8.460  0.00  0.00    +0.028 C 
BRANCH  78  79
ATOM     79  CG  LYS A  11      77.785   5.637   8.014  0.00  0.00    -0.000 C 
BRANCH  79  80
ATOM     80  CD  LYS A  11      77.611   5.868   6.514  0.00  0.00    -0.024 C 
BRANCH  80  81
ATOM     81  CE  LYS A  11      76.158   5.763   6.059  0.00  0.00    -0.086 C 
BRANCH  81  82
ATOM     82  NZ  LYS A  11      76.014   6.056   4.610  0.00  0.00    +0.380 N 
ATOM     83  HZ1 LYS A  11      76.349   7.022   4.418  0.00  0.00    -0.089 HD
ATOM     84  HZ2 LYS A  11      75.013   5.975   4.339  0.00  0.00    -0.089 HD
ATOM     85  HZ3 LYS A  11      76.579   5.376   4.062  0.00  0.00    -0.089 HD
ENDBRANCH  81  82
ENDBRANCH  80  81
ENDBRANCH  79  80
ENDBRANCH  78  79
ENDBRANCH  75  78
ENDBRANCH  72  75
ENDBRANCH  70  71
BRANCH  70  86
ATOM     86  CB  LYS A  10      80.545   3.127   3.924  0.00  0.00    +0.029 C 
BRANCH  86  87
ATOM     87  CG  LYS A  10      80.992   2.334   2.706  0.00  0.00    +0.000 C 
BRANCH  87  88
ATOM     88  CD  LYS A  10      81.533   3.221   1.602  0.00  0.00    -0.024 C 
BRANCH  88  89
ATOM     89  CE  LYS A  10      81.974   2.386   0.411  0.00  0.00    -0.086 C 
BRANCH  89  90
ATOM     90  NZ  LYS A  10      82.353   3.208  -0.769  0.00  0.00    +0.380 N 
ATOM     91  HZ1 LYS A  10      83.142   3.836  -0.514  0.00  0.00    -0.089 HD
ATOM     92  HZ2 LYS A  10      81.537   3.779  -1.069  0.00  0.00    -0.089 HD
ATOM     93  HZ3 LYS A  10      82.644   2.582  -1.547  0.00  0.00    -0.089 HD
ENDBRANCH  89  90
ENDBRANCH  88  89
ENDBRANCH  87  88
ENDBRANCH  86  87
ENDBRANCH  70  86
ENDBRANCH  67  70
ENDBRANCH  65  66
BRANCH  65  94
ATOM     94  CB  ASP A   9      76.403   1.968   1.873  0.00  0.00    +0.143 C 
BRANCH  94  95
ATOM     95  CG  ASP A   9      77.643   1.645   1.057  0.00  0.00    +0.367 C 
ATOM     96  OD2 ASP A   9      78.147   0.507   1.151  0.00  0.00    -0.246 OA
ATOM     97  OD1 ASP A   9      78.185   2.467   0.289  0.00  0.00    -0.246 OA
ENDBRANCH  94  95
ENDBRANCH  65  94
ENDBRANCH  63  65
ENDBRANCH  60  61
BRANCH  60  98
ATOM     98  CB  THR A   8      73.385   1.203   6.801  0.00  0.00    +0.137 C 
ATOM     99  CG2 THR A   8      74.101   2.534   7.024  0.00  0.00    +0.034 C 
BRANCH  98 100
ATOM    100  OG1 THR A   8      72.070   1.420   7.329  0.00  0.00    -0.382 OA
ATOM    101  HG1 THR A   8      71.638   2.164   6.839  0.00  0.00    +0.210 HD
ENDBRANCH  98 100
ENDBRANCH  60  98
ENDBRANCH  57  60
ENDBRANCH  55  56
BRANCH  55 102
ATOM    102  CB  CYS A   7      72.079   0.878   2.280  0.00  0.00    +0.098 C 
ATOM    103  SG  CYS A   7      71.818   2.541   1.628  0.00  0.00    -0.080 S 
ENDBRANCH  55 102
ENDBRANCH   3  55
TORSDOF 45
REMARK  Name = ../refined-set-2016/3ccz/3ccz_pocket.pdb
REMARK  245 active torsions:
REMARK  status: ('A' for Active; 'I' for Inactive)
REMARK    1  A    between atoms: _1  and  _3
REMARK    2  A    between atoms: _3  and  _4
REMARK    3  A    between atoms: _3  and  _6
REMARK    4  A    between atoms: _6  and  _7
REMARK    5  A    between atoms: _7  and  _8
REMARK    6  A    between atoms: _11  and  _13
REMARK    7  A    between atoms: _13  and  _14
REMARK    8  A    between atoms: _13  and  _16
REMARK    9  A    between atoms: _16  and  _17
REMARK   10  A    between atoms: _20  and  _22
REMARK   11  A    between atoms: _22  and  _23
REMARK   12  A    between atoms: _22  and  _25
REMARK   13  A    between atoms: _25  and  _26
REMARK   14  A    between atoms: _26  and  _27
REMARK   15  A    between atoms: _27  and  _28
REMARK   16  A    between atoms: _37  and  _39
REMARK   17  A    between atoms: _39  and  _40
REMARK   18  A    between atoms: _43  and  _44
REMARK   19  A    between atoms: _49  and  _51
REMARK   20  A    between atoms: _51  and  _52
REMARK   21  A    between atoms: _51  and  _54
REMARK   22  A    between atoms: _54  and  _55
REMARK   23  A    between atoms: _55  and  _56
REMARK   24  A    between atoms: _58  and  _60
REMARK   25  A    between atoms: _60  and  _61
REMARK   26  A    between atoms: _60  and  _63
REMARK   27  A    between atoms: _63  and  _64
REMARK   28  A    between atoms: _64  and  _65
REMARK   29  A    between atoms: _67  and  _69
REMARK   30  A    between atoms: _69  and  _70
REMARK   31  A    between atoms: _69  and  _72
REMARK   32  A    between atoms: _72  and  _73
REMARK   33  A    between atoms: _78  and  _80
REMARK   34  A    between atoms: _80  and  _81
REMARK   35  A    between atoms: _80  and  _83
REMARK   36  A    between atoms: _83  and  _84
REMARK   37  A    between atoms: _84  and  _85
REMARK   38  A    between atoms: _87  and  _89
REMARK   39  A    between atoms: _89  and  _90
REMARK   40  A    between atoms: _89  and  _92
REMARK   41  A    between atoms: _92  and  _93
REMARK   42  A    between atoms: _96  and  _98
REMARK   43  A    between atoms: _98  and  _99
REMARK   44  A    between atoms: _98  and  _101
REMARK   45  A    between atoms: _101  and  _102
REMARK   46  A    between atoms: _104  and  _106
REMARK   47  A    between atoms: _106  and  _107
REMARK   48  A    between atoms: _106  and  _109
REMARK   49  A    between atoms: _109  and  _110
REMARK   50  A    between atoms: _110  and  _111
REMARK   51  A    between atoms: _111  and  _112
REMARK   52  A    between atoms: _112  and  _113
REMARK   53  A    between atoms: _117  and  _119
REMARK   54  A    between atoms: _119  and  _120
REMARK   55  A    between atoms: _119  and  _122
REMARK   56  A    between atoms: _122  and  _123
REMARK   57  A    between atoms: _126  and  _128
REMARK   58  A    between atoms: _128  and  _129
REMARK   59  A    between atoms: _128  and  _131
REMARK   60  A    between atoms: _131  and  _132
REMARK   61  A    between atoms: _132  and  _133
REMARK   62  A    between atoms: _136  and  _138
REMARK   63  A    between atoms: _138  and  _139
REMARK   64  A    between atoms: _142  and  _144
REMARK   65  A    between atoms: _144  and  _145
REMARK   66  A    between atoms: _144  and  _147
REMARK   67  A    between atoms: _150  and  _152
REMARK   68  A    between atoms: _152  and  _153
REMARK   69  A    between atoms: _152  and  _155
REMARK   70  A    between atoms: _155  and  _156
REMARK   71  A    between atoms: _158  and  _160
REMARK   72  A    between atoms: _160  and  _161
REMARK   73  A    between atoms: _163  and  _165
REMARK   74  A    between atoms: _165  and  _166
REMARK   75  A    between atoms: _165  and  _168
REMARK   76  A    between atoms: _168  and  _169
REMARK   77  A    between atoms: _174  and  _176
REMARK   78  A    between atoms: _176  and  _177
REMARK   79  A    between atoms: _176  and  _179
REMARK   80  A    between atoms: _179  and  _180
REMARK   81  A    between atoms: _185  and  _186
REMARK   82  A    between atoms: _188  and  _190
REMARK   83  A    between atoms: _190  and  _191
REMARK   84  A    between atoms: _190  and  _193
REMARK   85  A    between atoms: _195  and  _197
REMARK   86  A    between atoms: _197  and  _198
REMARK   87  A    between atoms: _197  and  _200
REMARK   88  A    between atoms: _200  and  _201
REMARK   89  A    between atoms: _204  and  _206
REMARK   90  A    between atoms: _206  and  _207
REMARK   91  A    between atoms: _206  and  _209
REMARK   92  A    between atoms: _209  and  _210
REMARK   93  A    between atoms: _213  and  _215
REMARK   94  A    between atoms: _215  and  _216
REMARK   95  A    between atoms: _215  and  _218
REMARK   96  A    between atoms: _218  and  _219
REMARK   97  A    between atoms: _219  and  _220
REMARK   98  A    between atoms: _220  and  _221
REMARK   99  A    between atoms: _221  and  _222
REMARK  100  A    between atoms: _226  and  _228
REMARK  101  A    between atoms: _228  and  _229
REMARK  102  A    between atoms: _228  and  _231
REMARK  103  A    between atoms: _231  and  _232
REMARK  104  A    between atoms: _232  and  _233
REMARK  105  A    between atoms: _233  and  _234
REMARK  106  A    between atoms: _234  and  _235
REMARK  107  A    between atoms: _239  and  _241
REMARK  108  A    between atoms: _241  and  _242
REMARK  109  A    between atoms: _241  and  _244
REMARK  110  A    between atoms: _244  and  _245
REMARK  111  A    between atoms: _245  and  _246
REMARK  112  A    between atoms: _246  and  _247
REMARK  113  A    between atoms: _256  and  _258
REMARK  114  A    between atoms: _258  and  _259
REMARK  115  A    between atoms: _258  and  _261
REMARK  116  A    between atoms: _261  and  _262
REMARK  117  A    between atoms: _265  and  _267
REMARK  118  A    between atoms: _267  and  _268
REMARK  119  A    between atoms: _271  and  _273
REMARK  120  A    between atoms: _273  and  _274
REMARK  121  A    between atoms: _273  and  _276
REMARK  122  A    between atoms: _276  and  _277
REMARK  123  A    between atoms: _277  and  _278
REMARK  124  A    between atoms: _283  and  _285
REMARK  125  A    between atoms: _285  and  _286
REMARK  126  A    between atoms: _285  and  _288
REMARK  127  A    between atoms: _288  and  _289
REMARK  128  A    between atoms: _289  and  _290
REMARK  129  A    between atoms: _293  and  _295
REMARK  130  A    between atoms: _295  and  _296
REMARK  131  A    between atoms: _298  and  _300
REMARK  132  A    between atoms: _300  and  _301
REMARK  133  A    between atoms: _300  and  _303
REMARK  134  A    between atoms: _305  and  _307
REMARK  135  A    between atoms: _307  and  _308
REMARK  136  A    between atoms: _307  and  _310
REMARK  137  A    between atoms: _310  and  _311
REMARK  138  A    between atoms: _314  and  _316
REMARK  139  A    between atoms: _316  and  _317
REMARK  140  A    between atoms: _316  and  _319
REMARK  141  A    between atoms: _322  and  _324
REMARK  142  A    between atoms: _324  and  _325
REMARK  143  A    between atoms: _328  and  _330
REMARK  144  A    between atoms: _330  and  _331
REMARK  145  A    between atoms: _330  and  _333
REMARK  146  A    between atoms: _333  and  _334
REMARK  147  A    between atoms: _336  and  _338
REMARK  148  A    between atoms: _338  and  _339
REMARK  149  A    between atoms: _338  and  _341
REMARK  150  A    between atoms: _341  and  _342
REMARK  151  A    between atoms: _345  and  _347
REMARK  152  A    between atoms: _347  and  _348
REMARK  153  A    between atoms: _347  and  _350
REMARK  154  A    between atoms: _350  and  _351
REMARK  155  A    between atoms: _356  and  _358
REMARK  156  A    between atoms: _358  and  _359
REMARK  157  A    between atoms: _358  and  _361
REMARK  158  A    between atoms: _361  and  _362
REMARK  159  A    between atoms: _362  and  _363
REMARK  160  A    between atoms: _363  and  _364
REMARK  161  A    between atoms: _373  and  _375
REMARK  162  A    between atoms: _375  and  _376
REMARK  163  A    between atoms: _378  and  _380
REMARK  164  A    between atoms: _380  and  _381
REMARK  165  A    between atoms: _380  and  _383
REMARK  166  A    between atoms: _386  and  _388
REMARK  167  A    between atoms: _388  and  _389
REMARK  168  A    between atoms: _388  and  _391
REMARK  169  A    between atoms: _391  and  _392
REMARK  170  A    between atoms: _395  and  _397
REMARK  171  A    between atoms: _397  and  _398
REMARK  172  A    between atoms: _397  and  _400
REMARK  173  A    between atoms: _400  and  _401
REMARK  174  A    between atoms: _401  and  _402
REMARK  175  A    between atoms: _402  and  _403
REMARK  176  A    between atoms: _403  and  _404
REMARK  177  A    between atoms: _408  and  _410
REMARK  178  A    between atoms: _410  and  _411
REMARK  179  A    between atoms: _410  and  _413
REMARK  180  A    between atoms: _413  and  _414
REMARK  181  A    between atoms: _414  and  _415
REMARK  182  A    between atoms: _415  and  _416
REMARK  183  A    between atoms: _416  and  _417
REMARK  184  A    between atoms: _421  and  _423
REMARK  185  A    between atoms: _423  and  _424
REMARK  186  A    between atoms: _423  and  _426
REMARK  187  A    between atoms: _426  and  _427
REMARK  188  A    between atoms: _432  and  _434
REMARK  189  A    between atoms: _434  and  _435
REMARK  190  A    between atoms: _434  and  _437
REMARK  191  A    between atoms: _437  and  _438
REMARK  192  A    between atoms: _443  and  _445
REMARK  193  A    between atoms: _445  and  _446
REMARK  194  A    between atoms: _449  and  _451
REMARK  195  A    between atoms: _451  and  _452
REMARK  196  A    between atoms: _451  and  _454
REMARK  197  A    between atoms: _454  and  _455
REMARK  198  A    between atoms: _460  and  _462
REMARK  199  A    between atoms: _462  and  _463
REMARK  200  A    between atoms: _466  and  _468
REMARK  201  A    between atoms: _468  and  _469
REMARK  202  A    between atoms: _472  and  _474
REMARK  203  A    between atoms: _474  and  _475
REMARK  204  A    between atoms: _474  and  _477
REMARK  205  A    between atoms: _477  and  _478
REMARK  206  A    between atoms: _483  and  _485
REMARK  207  A    between atoms: _485  and  _486
REMARK  208  A    between atoms: _485  and  _488
REMARK  209  A    between atoms: _488  and  _489
REMARK  210  A    between atoms: _492  and  _494
REMARK  211  A    between atoms: _494  and  _495
REMARK  212  A    between atoms: _497  and  _499
REMARK  213  A    between atoms: _499  and  _500
REMARK  214  A    between atoms: _499  and  _502
REMARK  215  A    between atoms: _502  and  _503
REMARK  216  A    between atoms: _503  and  _504
REMARK  217  A    between atoms: _507  and  _509
REMARK  218  A    between atoms: _509  and  _510
REMARK  219  A    between atoms: _509  and  _512
REMARK  220  A    between atoms: _512  and  _513
REMARK  221  A    between atoms: _516  and  _518
REMARK  222  A    between atoms: _518  and  _519
REMARK  223  A    between atoms: _518  and  _521
REMARK  224  A    between atoms: _521  and  _522
REMARK  225  A    between atoms: _524  and  _526
REMARK  226  A    between atoms: _526  and  _527
REMARK  227  A    between atoms: _526  and  _529
REMARK  228  A    between atoms: _529  and  _530
REMARK  229  A    between atoms: _533  and  _535
REMARK  230  A    between atoms: _535  and  _536
REMARK  231  A    between atoms: _535  and  _538
REMARK  232  A    between atoms: _538  and  _539
REMARK  233  A    between atoms: _539  and  _540
REMARK  234  A    between atoms: _542  and  _544
REMARK  235  A    between atoms: _544  and  _545
REMARK  236  A    between atoms: _548  and  _550
REMARK  237  A    between atoms: _550  and  _551
REMARK  238  A    between atoms: _554  and  _556
REMARK  239  A    between atoms: _556  and  _557
REMARK  240  A    between atoms: _556  and  _559
REMARK  241  A    between atoms: _559  and  _560
REMARK  242  A    between atoms: _563  and  _565
REMARK  243  A    between atoms: _565  and  _566
REMARK  244  A    between atoms: _569  and  _571
REMARK  245  A    between atoms: _571  and  _572
REMARK                            x       y       z     vdW  Elec       q    Type
REMARK                         _______ _______ _______ _____ _____    ______ ____
ROOT
ATOM      1  NE  ARG A   1      74.272  -2.316   2.250  0.00  0.00    -0.265 N 
ATOM      2  HE  ARG A   1      73.296  -2.049   2.008  0.00  0.00    +0.259 HD
ATOM      3  CZ  ARG A   1      75.253  -1.761   1.537  0.00  0.00    +0.342 C 
ATOM      4  NH2 ARG A   1      76.526  -2.052   1.768  0.00  0.00    -0.292 N 
ATOM      5 HH21 ARG A   1      76.777  -2.726   2.519  0.00  0.00    +0.255 HD
ATOM      6 HH22 ARG A   1      77.273  -1.606   1.198  0.00  0.00    +0.255 HD
ATOM      7  NH1 ARG A   1      74.956  -0.901   0.572  0.00  0.00    -0.292 N 
ATOM      8 HH11 ARG A   1      73.963  -0.663   0.375  0.00  0.00    +0.255 HD
ATOM      9 HH12 ARG A   1      75.716  -0.465   0.012  0.00  0.00    +0.255 HD
ENDROOT
BRANCH   1  10
ATOM     10  CD  ARG A   1      74.455  -3.272   3.348  0.00  0.00    +0.174 C 
BRANCH  10  11
ATOM     11  CG  ARG A   1      74.356  -4.733   2.921  0.00  0.00    +0.045 C 
BRANCH  11  12
ATOM     12  CB  ARG A   1      74.197  -5.702   4.102  0.00  0.00    +0.029 C 
BRANCH  12  13
ATOM     13  CA  ARG A   1      73.855  -7.142   3.710  0.00  0.00    +0.133 C 
BRANCH  13  14
ATOM     14  N   ARG A   1      73.615  -7.968   4.899  0.00  0.00    -0.239 NA
ATOM     15  H   ARG A   1      74.411  -8.506   5.297  0.00  0.00    +0.142 HD
ENDBRANCH  13  14
BRANCH  13  16
ATOM     16  C   ARG A   1      74.999  -7.749   2.908  0.00  0.00    +0.224 C 
ATOM     17  O   ARG A   1      76.069  -8.013   3.447  0.00  0.00    -0.287 OA
ENDBRANCH  13  16
ENDBRANCH  12  13
ENDBRANCH  11  12
ENDBRANCH  10  11
ENDBRANCH   1  10
TORSDOF 6
REMARK  Name = ../refined-set-2016/3ccz/3ccz_pocket.pdb
REMARK  245 active torsions:
REMARK  status: ('A' for Active; 'I' for Inactive)
REMARK    1  A    between atoms: _1  and  _3
REMARK    2  A    between atoms: _3  and  _4
REMARK    3  A    between atoms: _3  and  _6
REMARK    4  A    between atoms: _6  and  _7
REMARK    5  A    between atoms: _7  and  _8
REMARK    6  A    between atoms: _11  and  _13
REMARK    7  A    between atoms: _13  and  _14
REMARK    8  A    between atoms: _13  and  _16
REMARK    9  A    between atoms: _16  and  _17
REMARK   10  A    between atoms: _20  and  _22
REMARK   11  A    between atoms: _22  and  _23
REMARK   12  A    between atoms: _22  and  _25
REMARK   13  A    between atoms: _25  and  _26
REMARK   14  A    between atoms: _26  and  _27
REMARK   15  A    between atoms: _27  and  _28
REMARK   16  A    between atoms: _37  and  _39
REMARK   17  A    between atoms: _39  and  _40
REMARK   18  A    between atoms: _43  and  _44
REMARK   19  A    between atoms: _49  and  _51
REMARK   20  A    between atoms: _51  and  _52
REMARK   21  A    between atoms: _51  and  _54
REMARK   22  A    between atoms: _54  and  _55
REMARK   23  A    between atoms: _55  and  _56
REMARK   24  A    between atoms: _58  and  _60
REMARK   25  A    between atoms: _60  and  _61
REMARK   26  A    between atoms: _60  and  _63
REMARK   27  A    between atoms: _63  and  _64
REMARK   28  A    between atoms: _64  and  _65
REMARK   29  A    between atoms: _67  and  _69
REMARK   30  A    between atoms: _69  and  _70
REMARK   31  A    between atoms: _69  and  _72
REMARK   32  A    between atoms: _72  and  _73
REMARK   33  A    between atoms: _78  and  _80
REMARK   34  A    between atoms: _80  and  _81
REMARK   35  A    between atoms: _80  and  _83
REMARK   36  A    between atoms: _83  and  _84
REMARK   37  A    between atoms: _84  and  _85
REMARK   38  A    between atoms: _87  and  _89
REMARK   39  A    between atoms: _89  and  _90
REMARK   40  A    between atoms: _89  and  _92
REMARK   41  A    between atoms: _92  and  _93
REMARK   42  A    between atoms: _96  and  _98
REMARK   43  A    between atoms: _98  and  _99
REMARK   44  A    between atoms: _98  and  _101
REMARK   45  A    between atoms: _101  and  _102
REMARK   46  A    between atoms: _104  and  _106
REMARK   47  A    between atoms: _106  and  _107
REMARK   48  A    between atoms: _106  and  _109
REMARK   49  A    between atoms: _109  and  _110
REMARK   50  A    between atoms: _110  and  _111
REMARK   51  A    between atoms: _111  and  _112
REMARK   52  A    between atoms: _112  and  _113
REMARK   53  A    between atoms: _117  and  _119
REMARK   54  A    between atoms: _119  and  _120
REMARK   55  A    between atoms: _119  and  _122
REMARK   56  A    between atoms: _122  and  _123
REMARK   57  A    between atoms: _126  and  _128
REMARK   58  A    between atoms: _128  and  _129
REMARK   59  A    between atoms: _128  and  _131
REMARK   60  A    between atoms: _131  and  _132
REMARK   61  A    between atoms: _132  and  _133
REMARK   62  A    between atoms: _136  and  _138
REMARK   63  A    between atoms: _138  and  _139
REMARK   64  A    between atoms: _142  and  _144
REMARK   65  A    between atoms: _144  and  _145
REMARK   66  A    between atoms: _144  and  _147
REMARK   67  A    between atoms: _150  and  _152
REMARK   68  A    between atoms: _152  and  _153
REMARK   69  A    between atoms: _152  and  _155
REMARK   70  A    between atoms: _155  and  _156
REMARK   71  A    between atoms: _158  and  _160
REMARK   72  A    between atoms: _160  and  _161
REMARK   73  A    between atoms: _163  and  _165
REMARK   74  A    between atoms: _165  and  _166
REMARK   75  A    between atoms: _165  and  _168
REMARK   76  A    between atoms: _168  and  _169
REMARK   77  A    between atoms: _174  and  _176
REMARK   78  A    between atoms: _176  and  _177
REMARK   79  A    between atoms: _176  and  _179
REMARK   80  A    between atoms: _179  and  _180
REMARK   81  A    between atoms: _185  and  _186
REMARK   82  A    between atoms: _188  and  _190
REMARK   83  A    between atoms: _190  and  _191
REMARK   84  A    between atoms: _190  and  _193
REMARK   85  A    between atoms: _195  and  _197
REMARK   86  A    between atoms: _197  and  _198
REMARK   87  A    between atoms: _197  and  _200
REMARK   88  A    between atoms: _200  and  _201
REMARK   89  A    between atoms: _204  and  _206
REMARK   90  A    between atoms: _206  and  _207
REMARK   91  A    between atoms: _206  and  _209
REMARK   92  A    between atoms: _209  and  _210
REMARK   93  A    between atoms: _213  and  _215
REMARK   94  A    between atoms: _215  and  _216
REMARK   95  A    between atoms: _215  and  _218
REMARK   96  A    between atoms: _218  and  _219
REMARK   97  A    between atoms: _219  and  _220
REMARK   98  A    between atoms: _220  and  _221
REMARK   99  A    between atoms: _221  and  _222
REMARK  100  A    between atoms: _226  and  _228
REMARK  101  A    between atoms: _228  and  _229
REMARK  102  A    between atoms: _228  and  _231
REMARK  103  A    between atoms: _231  and  _232
REMARK  104  A    between atoms: _232  and  _233
REMARK  105  A    between atoms: _233  and  _234
REMARK  106  A    between atoms: _234  and  _235
REMARK  107  A    between atoms: _239  and  _241
REMARK  108  A    between atoms: _241  and  _242
REMARK  109  A    between atoms: _241  and  _244
REMARK  110  A    between atoms: _244  and  _245
REMARK  111  A    between atoms: _245  and  _246
REMARK  112  A    between atoms: _246  and  _247
REMARK  113  A    between atoms: _256  and  _258
REMARK  114  A    between atoms: _258  and  _259
REMARK  115  A    between atoms: _258  and  _261
REMARK  116  A    between atoms: _261  and  _262
REMARK  117  A    between atoms: _265  and  _267
REMARK  118  A    between atoms: _267  and  _268
REMARK  119  A    between atoms: _271  and  _273
REMARK  120  A    between atoms: _273  and  _274
REMARK  121  A    between atoms: _273  and  _276
REMARK  122  A    between atoms: _276  and  _277
REMARK  123  A    between atoms: _277  and  _278
REMARK  124  A    between atoms: _283  and  _285
REMARK  125  A    between atoms: _285  and  _286
REMARK  126  A    between atoms: _285  and  _288
REMARK  127  A    between atoms: _288  and  _289
REMARK  128  A    between atoms: _289  and  _290
REMARK  129  A    between atoms: _293  and  _295
REMARK  130  A    between atoms: _295  and  _296
REMARK  131  A    between atoms: _298  and  _300
REMARK  132  A    between atoms: _300  and  _301
REMARK  133  A    between atoms: _300  and  _303
REMARK  134  A    between atoms: _305  and  _307
REMARK  135  A    between atoms: _307  and  _308
REMARK  136  A    between atoms: _307  and  _310
REMARK  137  A    between atoms: _310  and  _311
REMARK  138  A    between atoms: _314  and  _316
REMARK  139  A    between atoms: _316  and  _317
REMARK  140  A    between atoms: _316  and  _319
REMARK  141  A    between atoms: _322  and  _324
REMARK  142  A    between atoms: _324  and  _325
REMARK  143  A    between atoms: _328  and  _330
REMARK  144  A    between atoms: _330  and  _331
REMARK  145  A    between atoms: _330  and  _333
REMARK  146  A    between atoms: _333  and  _334
REMARK  147  A    between atoms: _336  and  _338
REMARK  148  A    between atoms: _338  and  _339
REMARK  149  A    between atoms: _338  and  _341
REMARK  150  A    between atoms: _341  and  _342
REMARK  151  A    between atoms: _345  and  _347
REMARK  152  A    between atoms: _347  and  _348
REMARK  153  A    between atoms: _347  and  _350
REMARK  154  A    between atoms: _350  and  _351
REMARK  155  A    between atoms: _356  and  _358
REMARK  156  A    between atoms: _358  and  _359
REMARK  157  A    between atoms: _358  and  _361
REMARK  158  A    between atoms: _361  and  _362
REMARK  159  A    between atoms: _362  and  _363
REMARK  160  A    between atoms: _363  and  _364
REMARK  161  A    between atoms: _373  and  _375
REMARK  162  A    between atoms: _375  and  _376
REMARK  163  A    between atoms: _378  and  _380
REMARK  164  A    between atoms: _380  and  _381
REMARK  165  A    between atoms: _380  and  _383
REMARK  166  A    between atoms: _386  and  _388
REMARK  167  A    between atoms: _388  and  _389
REMARK  168  A    between atoms: _388  and  _391
REMARK  169  A    between atoms: _391  and  _392
REMARK  170  A    between atoms: _395  and  _397
REMARK  171  A    between atoms: _397  and  _398
REMARK  172  A    between atoms: _397  and  _400
REMARK  173  A    between atoms: _400  and  _401
REMARK  174  A    between atoms: _401  and  _402
REMARK  175  A    between atoms: _402  and  _403
REMARK  176  A    between atoms: _403  and  _404
REMARK  177  A    between atoms: _408  and  _410
REMARK  178  A    between atoms: _410  and  _411
REMARK  179  A    between atoms: _410  and  _413
REMARK  180  A    between atoms: _413  and  _414
REMARK  181  A    between atoms: _414  and  _415
REMARK  182  A    between atoms: _415  and  _416
REMARK  183  A    between atoms: _416  and  _417
REMARK  184  A    between atoms: _421  and  _423
REMARK  185  A    between atoms: _423  and  _424
REMARK  186  A    between atoms: _423  and  _426
REMARK  187  A    between atoms: _426  and  _427
REMARK  188  A    between atoms: _432  and  _434
REMARK  189  A    between atoms: _434  and  _435
REMARK  190  A    between atoms: _434  and  _437
REMARK  191  A    between atoms: _437  and  _438
REMARK  192  A    between atoms: _443  and  _445
REMARK  193  A    between atoms: _445  and  _446
REMARK  194  A    between atoms: _449  and  _451
REMARK  195  A    between atoms: _451  and  _452
REMARK  196  A    between atoms: _451  and  _454
REMARK  197  A    between atoms: _454  and  _455
REMARK  198  A    between atoms: _460  and  _462
REMARK  199  A    between atoms: _462  and  _463
REMARK  200  A    between atoms: _466  and  _468
REMARK  201  A    between atoms: _468  and  _469
REMARK  202  A    between atoms: _472  and  _474
REMARK  203  A    between atoms: _474  and  _475
REMARK  204  A    between atoms: _474  and  _477
REMARK  205  A    between atoms: _477  and  _478
REMARK  206  A    between atoms: _483  and  _485
REMARK  207  A    between atoms: _485  and  _486
REMARK  208  A    between atoms: _485  and  _488
REMARK  209  A    between atoms: _488  and  _489
REMARK  210  A    between atoms: _492  and  _494
REMARK  211  A    between atoms: _494  and  _495
REMARK  212  A    between atoms: _497  and  _499
REMARK  213  A    between atoms: _499  and  _500
REMARK  214  A    between atoms: _499  and  _502
REMARK  215  A    between atoms: _502  and  _503
REMARK  216  A    between atoms: _503  and  _504
REMARK  217  A    between atoms: _507  and  _509
REMARK  218  A    between atoms: _509  and  _510
REMARK  219  A    between atoms: _509  and  _512
REMARK  220  A    between atoms: _512  and  _513
REMARK  221  A    between atoms: _516  and  _518
REMARK  222  A    between atoms: _518  and  _519
REMARK  223  A    between atoms: _518  and  _521
REMARK  224  A    between atoms: _521  and  _522
REMARK  225  A    between atoms: _524  and  _526
REMARK  226  A    between atoms: _526  and  _527
REMARK  227  A    between atoms: _526  and  _529
REMARK  228  A    between atoms: _529  and  _530
REMARK  229  A    between atoms: _533  and  _535
REMARK  230  A    between atoms: _535  and  _536
REMARK  231  A    between atoms: _535  and  _538
REMARK  232  A    between atoms: _538  and  _539
REMARK  233  A    between atoms: _539  and  _540
REMARK  234  A    between atoms: _542  and  _544
REMARK  235  A    between atoms: _544  and  _545
REMARK  236  A    between atoms: _548  and  _550
REMARK  237  A    between atoms: _550  and  _551
REMARK  238  A    between atoms: _554  and  _556
REMARK  239  A    between atoms: _556  and  _557
REMARK  240  A    between atoms: _556  and  _559
REMARK  241  A    between atoms: _559  and  _560
REMARK  242  A    between atoms: _563  and  _565
REMARK  243  A    between atoms: _565  and  _566
REMARK  244  A    between atoms: _569  and  _571
REMARK  245  A    between atoms: _571  and  _572
REMARK                            x       y       z     vdW  Elec       q    Type
REMARK                         _______ _______ _______ _____ _____    ______ ____
ROOT
ATOM      1  CA  ASP A   1      86.132  -1.424  -1.524  0.00  0.00    +0.144 C 
ENDROOT
BRANCH   1   2
ATOM      2  N   ASP A   1      86.313  -2.739  -2.121  0.00  0.00    -0.239 NA
ATOM      3  H   ASP A   1      85.480  -3.350  -2.242  0.00  0.00    +0.142 HD
ENDBRANCH   1   2
BRANCH   1   4
ATOM      4  C   ASP A   1      86.516  -1.523  -0.050  0.00  0.00    +0.225 C 
ATOM      5  O   ASP A   1      85.761  -2.057   0.756  0.00  0.00    -0.287 OA
ENDBRANCH   1   4
BRANCH   1   6
ATOM      6  CB  ASP A   1      84.673  -0.978  -1.683  0.00  0.00    +0.139 C 
BRANCH   6   7
ATOM      7  CG  ASP A   1      84.491   0.516  -1.505  0.00  0.00    +0.367 C 
ATOM      8  OD2 ASP A   1      85.187   1.113  -0.658  0.00  0.00    -0.246 OA
ATOM      9  OD1 ASP A   1      83.669   1.175  -2.173  0.00  0.00    -0.246 OA
ENDBRANCH   6   7
ENDBRANCH   1   6
TORSDOF 4
REMARK  Name = ../refined-set-2016/3ccz/3ccz_pocket.pdb
REMARK  245 active torsions:
REMARK  status: ('A' for Active; 'I' for Inactive)
REMARK    1  A    between atoms: _1  and  _3
REMARK    2  A    between atoms: _3  and  _4
REMARK    3  A    between atoms: _3  and  _6
REMARK    4  A    between atoms: _6  and  _7
REMARK    5  A    between atoms: _7  and  _8
REMARK    6  A    between atoms: _11  and  _13
REMARK    7  A    between atoms: _13  and  _14
REMARK    8  A    between atoms: _13  and  _16
REMARK    9  A    between atoms: _16  and  _17
REMARK   10  A    between atoms: _20  and  _22
REMARK   11  A    between atoms: _22  and  _23
REMARK   12  A    between atoms: _22  and  _25
REMARK   13  A    between atoms: _25  and  _26
REMARK   14  A    between atoms: _26  and  _27
REMARK   15  A    between atoms: _27  and  _28
REMARK   16  A    between atoms: _37  and  _39
REMARK   17  A    between atoms: _39  and  _40
REMARK   18  A    between atoms: _43  and  _44
REMARK   19  A    between atoms: _49  and  _51
REMARK   20  A    between atoms: _51  and  _52
REMARK   21  A    between atoms: _51  and  _54
REMARK   22  A    between atoms: _54  and  _55
REMARK   23  A    between atoms: _55  and  _56
REMARK   24  A    between atoms: _58  and  _60
REMARK   25  A    between atoms: _60  and  _61
REMARK   26  A    between atoms: _60  and  _63
REMARK   27  A    between atoms: _63  and  _64
REMARK   28  A    between atoms: _64  and  _65
REMARK   29  A    between atoms: _67  and  _69
REMARK   30  A    between atoms: _69  and  _70
REMARK   31  A    between atoms: _69  and  _72
REMARK   32  A    between atoms: _72  and  _73
REMARK   33  A    between atoms: _78  and  _80
REMARK   34  A    between atoms: _80  and  _81
REMARK   35  A    between atoms: _80  and  _83
REMARK   36  A    between atoms: _83  and  _84
REMARK   37  A    between atoms: _84  and  _85
REMARK   38  A    between atoms: _87  and  _89
REMARK   39  A    between atoms: _89  and  _90
REMARK   40  A    between atoms: _89  and  _92
REMARK   41  A    between atoms: _92  and  _93
REMARK   42  A    between atoms: _96  and  _98
REMARK   43  A    between atoms: _98  and  _99
REMARK   44  A    between atoms: _98  and  _101
REMARK   45  A    between atoms: _101  and  _102
REMARK   46  A    between atoms: _104  and  _106
REMARK   47  A    between atoms: _106  and  _107
REMARK   48  A    between atoms: _106  and  _109
REMARK   49  A    between atoms: _109  and  _110
REMARK   50  A    between atoms: _110  and  _111
REMARK   51  A    between atoms: _111  and  _112
REMARK   52  A    between atoms: _112  and  _113
REMARK   53  A    between atoms: _117  and  _119
REMARK   54  A    between atoms: _119  and  _120
REMARK   55  A    between atoms: _119  and  _122
REMARK   56  A    between atoms: _122  and  _123
REMARK   57  A    between atoms: _126  and  _128
REMARK   58  A    between atoms: _128  and  _129
REMARK   59  A    between atoms: _128  and  _131
REMARK   60  A    between atoms: _131  and  _132
REMARK   61  A    between atoms: _132  and  _133
REMARK   62  A    between atoms: _136  and  _138
REMARK   63  A    between atoms: _138  and  _139
REMARK   64  A    between atoms: _142  and  _144
REMARK   65  A    between atoms: _144  and  _145
REMARK   66  A    between atoms: _144  and  _147
REMARK   67  A    between atoms: _150  and  _152
REMARK   68  A    between atoms: _152  and  _153
REMARK   69  A    between atoms: _152  and  _155
REMARK   70  A    between atoms: _155  and  _156
REMARK   71  A    between atoms: _158  and  _160
REMARK   72  A    between atoms: _160  and  _161
REMARK   73  A    between atoms: _163  and  _165
REMARK   74  A    between atoms: _165  and  _166
REMARK   75  A    between atoms: _165  and  _168
REMARK   76  A    between atoms: _168  and  _169
REMARK   77  A    between atoms: _174  and  _176
REMARK   78  A    between atoms: _176  and  _177
REMARK   79  A    between atoms: _176  and  _179
REMARK   80  A    between atoms: _179  and  _180
REMARK   81  A    between atoms: _185  and  _186
REMARK   82  A    between atoms: _188  and  _190
REMARK   83  A    between atoms: _190  and  _191
REMARK   84  A    between atoms: _190  and  _193
REMARK   85  A    between atoms: _195  and  _197
REMARK   86  A    between atoms: _197  and  _198
REMARK   87  A    between atoms: _197  and  _200
REMARK   88  A    between atoms: _200  and  _201
REMARK   89  A    between atoms: _204  and  _206
REMARK   90  A    between atoms: _206  and  _207
REMARK   91  A    between atoms: _206  and  _209
REMARK   92  A    between atoms: _209  and  _210
REMARK   93  A    between atoms: _213  and  _215
REMARK   94  A    between atoms: _215  and  _216
REMARK   95  A    between atoms: _215  and  _218
REMARK   96  A    between atoms: _218  and  _219
REMARK   97  A    between atoms: _219  and  _220
REMARK   98  A    between atoms: _220  and  _221
REMARK   99  A    between atoms: _221  and  _222
REMARK  100  A    between atoms: _226  and  _228
REMARK  101  A    between atoms: _228  and  _229
REMARK  102  A    between atoms: _228  and  _231
REMARK  103  A    between atoms: _231  and  _232
REMARK  104  A    between atoms: _232  and  _233
REMARK  105  A    between atoms: _233  and  _234
REMARK  106  A    between atoms: _234  and  _235
REMARK  107  A    between atoms: _239  and  _241
REMARK  108  A    between atoms: _241  and  _242
REMARK  109  A    between atoms: _241  and  _244
REMARK  110  A    between atoms: _244  and  _245
REMARK  111  A    between atoms: _245  and  _246
REMARK  112  A    between atoms: _246  and  _247
REMARK  113  A    between atoms: _256  and  _258
REMARK  114  A    between atoms: _258  and  _259
REMARK  115  A    between atoms: _258  and  _261
REMARK  116  A    between atoms: _261  and  _262
REMARK  117  A    between atoms: _265  and  _267
REMARK  118  A    between atoms: _267  and  _268
REMARK  119  A    between atoms: _271  and  _273
REMARK  120  A    between atoms: _273  and  _274
REMARK  121  A    between atoms: _273  and  _276
REMARK  122  A    between atoms: _276  and  _277
REMARK  123  A    between atoms: _277  and  _278
REMARK  124  A    between atoms: _283  and  _285
REMARK  125  A    between atoms: _285  and  _286
REMARK  126  A    between atoms: _285  and  _288
REMARK  127  A    between atoms: _288  and  _289
REMARK  128  A    between atoms: _289  and  _290
REMARK  129  A    between atoms: _293  and  _295
REMARK  130  A    between atoms: _295  and  _296
REMARK  131  A    between atoms: _298  and  _300
REMARK  132  A    between atoms: _300  and  _301
REMARK  133  A    between atoms: _300  and  _303
REMARK  134  A    between atoms: _305  and  _307
REMARK  135  A    between atoms: _307  and  _308
REMARK  136  A    between atoms: _307  and  _310
REMARK  137  A    between atoms: _310  and  _311
REMARK  138  A    between atoms: _314  and  _316
REMARK  139  A    between atoms: _316  and  _317
REMARK  140  A    between atoms: _316  and  _319
REMARK  141  A    between atoms: _322  and  _324
REMARK  142  A    between atoms: _324  and  _325
REMARK  143  A    between atoms: _328  and  _330
REMARK  144  A    between atoms: _330  and  _331
REMARK  145  A    between atoms: _330  and  _333
REMARK  146  A    between atoms: _333  and  _334
REMARK  147  A    between atoms: _336  and  _338
REMARK  148  A    between atoms: _338  and  _339
REMARK  149  A    between atoms: _338  and  _341
REMARK  150  A    between atoms: _341  and  _342
REMARK  151  A    between atoms: _345  and  _347
REMARK  152  A    between atoms: _347  and  _348
REMARK  153  A    between atoms: _347  and  _350
REMARK  154  A    between atoms: _350  and  _351
REMARK  155  A    between atoms: _356  and  _358
REMARK  156  A    between atoms: _358  and  _359
REMARK  157  A    between atoms: _358  and  _361
REMARK  158  A    between atoms: _361  and  _362
REMARK  159  A    between atoms: _362  and  _363
REMARK  160  A    between atoms: _363  and  _364
REMARK  161  A    between atoms: _373  and  _375
REMARK  162  A    between atoms: _375  and  _376
REMARK  163  A    between atoms: _378  and  _380
REMARK  164  A    between atoms: _380  and  _381
REMARK  165  A    between atoms: _380  and  _383
REMARK  166  A    between atoms: _386  and  _388
REMARK  167  A    between atoms: _388  and  _389
REMARK  168  A    between atoms: _388  and  _391
REMARK  169  A    between atoms: _391  and  _392
REMARK  170  A    between atoms: _395  and  _397
REMARK  171  A    between atoms: _397  and  _398
REMARK  172  A    between atoms: _397  and  _400
REMARK  173  A    between atoms: _400  and  _401
REMARK  174  A    between atoms: _401  and  _402
REMARK  175  A    between atoms: _402  and  _403
REMARK  176  A    between atoms: _403  and  _404
REMARK  177  A    between atoms: _408  and  _410
REMARK  178  A    between atoms: _410  and  _411
REMARK  179  A    between atoms: _410  and  _413
REMARK  180  A    between atoms: _413  and  _414
REMARK  181  A    between atoms: _414  and  _415
REMARK  182  A    between atoms: _415  and  _416
REMARK  183  A    between atoms: _416  and  _417
REMARK  184  A    between atoms: _421  and  _423
REMARK  185  A    between atoms: _423  and  _424
REMARK  186  A    between atoms: _423  and  _426
REMARK  187  A    between atoms: _426  and  _427
REMARK  188  A    between atoms: _432  and  _434
REMARK  189  A    between atoms: _434  and  _435
REMARK  190  A    between atoms: _434  and  _437
REMARK  191  A    between atoms: _437  and  _438
REMARK  192  A    between atoms: _443  and  _445
REMARK  193  A    between atoms: _445  and  _446
REMARK  194  A    between atoms: _449  and  _451
REMARK  195  A    between atoms: _451  and  _452
REMARK  196  A    between atoms: _451  and  _454
REMARK  197  A    between atoms: _454  and  _455
REMARK  198  A    between atoms: _460  and  _462
REMARK  199  A    between atoms: _462  and  _463
REMARK  200  A    between atoms: _466  and  _468
REMARK  201  A    between atoms: _468  and  _469
REMARK  202  A    between atoms: _472  and  _474
REMARK  203  A    between atoms: _474  and  _475
REMARK  204  A    between atoms: _474  and  _477
REMARK  205  A    between atoms: _477  and  _478
REMARK  206  A    between atoms: _483  and  _485
REMARK  207  A    between atoms: _485  and  _486
REMARK  208  A    between atoms: _485  and  _488
REMARK  209  A    between atoms: _488  and  _489
REMARK  210  A    between atoms: _492  and  _494
REMARK  211  A    between atoms: _494  and  _495
REMARK  212  A    between atoms: _497  and  _499
REMARK  213  A    between atoms: _499  and  _500
REMARK  214  A    between atoms: _499  and  _502
REMARK  215  A    between atoms: _502  and  _503
REMARK  216  A    between atoms: _503  and  _504
REMARK  217  A    between atoms: _507  and  _509
REMARK  218  A    between atoms: _509  and  _510
REMARK  219  A    between atoms: _509  and  _512
REMARK  220  A    between atoms: _512  and  _513
REMARK  221  A    between atoms: _516  and  _518
REMARK  222  A    between atoms: _518  and  _519
REMARK  223  A    between atoms: _518  and  _521
REMARK  224  A    between atoms: _521  and  _522
REMARK  225  A    between atoms: _524  and  _526
REMARK  226  A    between atoms: _526  and  _527
REMARK  227  A    between atoms: _526  and  _529
REMARK  228  A    between atoms: _529  and  _530
REMARK  229  A    between atoms: _533  and  _535
REMARK  230  A    between atoms: _535  and  _536
REMARK  231  A    between atoms: _535  and  _538
REMARK  232  A    between atoms: _538  and  _539
REMARK  233  A    between atoms: _539  and  _540
REMARK  234  A    between atoms: _542  and  _544
REMARK  235  A    between atoms: _544  and  _545
REMARK  236  A    between atoms: _548  and  _550
REMARK  237  A    between atoms: _550  and  _551
REMARK  238  A    between atoms: _554  and  _556
REMARK  239  A    between atoms: _556  and  _557
REMARK  240  A    between atoms: _556  and  _559
REMARK  241  A    between atoms: _559  and  _560
REMARK  242  A    between atoms: _563  and  _565
REMARK  243  A    between atoms: _565  and  _566
REMARK  244  A    between atoms: _569  and  _571
REMARK  245  A    between atoms: _571  and  _572
REMARK                            x       y       z     vdW  Elec       q    Type
REMARK                         _______ _______ _______ _____ _____    ______ ____
ROOT
ATOM      1  CA  GLN A   2      83.195  -1.337   3.339  0.00  0.00    +0.137 C 
ENDROOT
BRANCH   1   4
ATOM      2  C   ALA A   1      84.625   0.615   3.655  0.00  0.00    +0.238 C 
ATOM      3  O   ALA A   1      84.061   0.922   4.708  0.00  0.00    -0.274 OA
ATOM      4  N   GLN A   2      84.253  -0.425   2.913  0.00  0.00    -0.298 N 
ATOM      5  H   GLN A   2      84.729  -0.593   2.004  0.00  0.00    +0.150 HD
BRANCH   2   6
ATOM      6  CA  ALA A   1      85.811   1.435   3.141  0.00  0.00    +0.145 C 
ATOM      7  CB  ALA A   1      85.317   2.696   2.442  0.00  0.00    +0.028 C 
BRANCH   6   8
ATOM      8  N   ALA A   1      86.680   0.662   2.248  0.00  0.00    -0.238 NA
ATOM      9  H   ALA A   1      86.731   0.923   1.242  0.00  0.00    +0.142 HD
ENDBRANCH   6   8
ENDBRANCH   2   6
ENDBRANCH   1   4
BRANCH   1  10
ATOM     10  C   GLN A   2      83.642  -2.328   4.423  0.00  0.00    +0.227 C 
ATOM     11  O   GLN A   2      82.863  -3.178   4.835  0.00  0.00    -0.286 OA
ENDBRANCH   1  10
BRANCH   1  12
ATOM     12  CB  GLN A   2      82.609  -2.080   2.132  0.00  0.00    +0.037 C 
BRANCH  12  13
ATOM     13  CG  GLN A   2      81.833  -1.166   1.194  0.00  0.00    +0.087 C 
BRANCH  13  14
ATOM     14  CD  GLN A   2      81.072  -1.921   0.128  0.00  0.00    +0.219 C 
ATOM     15  NE2 GLN A   2      79.817  -1.540  -0.090  0.00  0.00    -0.329 N 
ATOM     16 HE21 GLN A   2      79.406  -0.762   0.464  0.00  0.00    +0.145 HD
ATOM     17 HE22 GLN A   2      79.246  -2.020  -0.815  0.00  0.00    +0.145 HD
ATOM     18  OE1 GLN A   2      81.612  -2.835  -0.496  0.00  0.00    -0.275 OA
ENDBRANCH  13  14
ENDBRANCH  12  13
ENDBRANCH   1  12
TORSDOF 7
REMARK  Name = ../refined-set-2016/3ccz/3ccz_pocket.pdb
REMARK  245 active torsions:
REMARK  status: ('A' for Active; 'I' for Inactive)
REMARK    1  A    between atoms: _1  and  _3
REMARK    2  A    between atoms: _3  and  _4
REMARK    3  A    between atoms: _3  and  _6
REMARK    4  A    between atoms: _6  and  _7
REMARK    5  A    between atoms: _7  and  _8
REMARK    6  A    between atoms: _11  and  _13
REMARK    7  A    between atoms: _13  and  _14
REMARK    8  A    between atoms: _13  and  _16
REMARK    9  A    between atoms: _16  and  _17
REMARK   10  A    between atoms: _20  and  _22
REMARK   11  A    between atoms: _22  and  _23
REMARK   12  A    between atoms: _22  and  _25
REMARK   13  A    between atoms: _25  and  _26
REMARK   14  A    between atoms: _26  and  _27
REMARK   15  A    between atoms: _27  and  _28
REMARK   16  A    between atoms: _37  and  _39
REMARK   17  A    between atoms: _39  and  _40
REMARK   18  A    between atoms: _43  and  _44
REMARK   19  A    between atoms: _49  and  _51
REMARK   20  A    between atoms: _51  and  _52
REMARK   21  A    between atoms: _51  and  _54
REMARK   22  A    between atoms: _54  and  _55
REMARK   23  A    between atoms: _55  and  _56
REMARK   24  A    between atoms: _58  and  _60
REMARK   25  A    between atoms: _60  and  _61
REMARK   26  A    between atoms: _60  and  _63
REMARK   27  A    between atoms: _63  and  _64
REMARK   28  A    between atoms: _64  and  _65
REMARK   29  A    between atoms: _67  and  _69
REMARK   30  A    between atoms: _69  and  _70
REMARK   31  A    between atoms: _69  and  _72
REMARK   32  A    between atoms: _72  and  _73
REMARK   33  A    between atoms: _78  and  _80
REMARK   34  A    between atoms: _80  and  _81
REMARK   35  A    between atoms: _80  and  _83
REMARK   36  A    between atoms: _83  and  _84
REMARK   37  A    between atoms: _84  and  _85
REMARK   38  A    between atoms: _87  and  _89
REMARK   39  A    between atoms: _89  and  _90
REMARK   40  A    between atoms: _89  and  _92
REMARK   41  A    between atoms: _92  and  _93
REMARK   42  A    between atoms: _96  and  _98
REMARK   43  A    between atoms: _98  and  _99
REMARK   44  A    between atoms: _98  and  _101
REMARK   45  A    between atoms: _101  and  _102
REMARK   46  A    between atoms: _104  and  _106
REMARK   47  A    between atoms: _106  and  _107
REMARK   48  A    between atoms: _106  and  _109
REMARK   49  A    between atoms: _109  and  _110
REMARK   50  A    between atoms: _110  and  _111
REMARK   51  A    between atoms: _111  and  _112
REMARK   52  A    between atoms: _112  and  _113
REMARK   53  A    between atoms: _117  and  _119
REMARK   54  A    between atoms: _119  and  _120
REMARK   55  A    between atoms: _119  and  _122
REMARK   56  A    between atoms: _122  and  _123
REMARK   57  A    between atoms: _126  and  _128
REMARK   58  A    between atoms: _128  and  _129
REMARK   59  A    between atoms: _128  and  _131
REMARK   60  A    between atoms: _131  and  _132
REMARK   61  A    between atoms: _132  and  _133
REMARK   62  A    between atoms: _136  and  _138
REMARK   63  A    between atoms: _138  and  _139
REMARK   64  A    between atoms: _142  and  _144
REMARK   65  A    between atoms: _144  and  _145
REMARK   66  A    between atoms: _144  and  _147
REMARK   67  A    between atoms: _150  and  _152
REMARK   68  A    between atoms: _152  and  _153
REMARK   69  A    between atoms: _152  and  _155
REMARK   70  A    between atoms: _155  and  _156
REMARK   71  A    between atoms: _158  and  _160
REMARK   72  A    between atoms: _160  and  _161
REMARK   73  A    between atoms: _163  and  _165
REMARK   74  A    between atoms: _165  and  _166
REMARK   75  A    between atoms: _165  and  _168
REMARK   76  A    between atoms: _168  and  _169
REMARK   77  A    between atoms: _174  and  _176
REMARK   78  A    between atoms: _176  and  _177
REMARK   79  A    between atoms: _176  and  _179
REMARK   80  A    between atoms: _179  and  _180
REMARK   81  A    between atoms: _185  and  _186
REMARK   82  A    between atoms: _188  and  _190
REMARK   83  A    between atoms: _190  and  _191
REMARK   84  A    between atoms: _190  and  _193
REMARK   85  A    between atoms: _195  and  _197
REMARK   86  A    between atoms: _197  and  _198
REMARK   87  A    between atoms: _197  and  _200
REMARK   88  A    between atoms: _200  and  _201
REMARK   89  A    between atoms: _204  and  _206
REMARK   90  A    between atoms: _206  and  _207
REMARK   91  A    between atoms: _206  and  _209
REMARK   92  A    between atoms: _209  and  _210
REMARK   93  A    between atoms: _213  and  _215
REMARK   94  A    between atoms: _215  and  _216
REMARK   95  A    between atoms: _215  and  _218
REMARK   96  A    between atoms: _218  and  _219
REMARK   97  A    between atoms: _219  and  _220
REMARK   98  A    between atoms: _220  and  _221
REMARK   99  A    between atoms: _221  and  _222
REMARK  100  A    between atoms: _226  and  _228
REMARK  101  A    between atoms: _228  and  _229
REMARK  102  A    between atoms: _228  and  _231
REMARK  103  A    between atoms: _231  and  _232
REMARK  104  A    between atoms: _232  and  _233
REMARK  105  A    between atoms: _233  and  _234
REMARK  106  A    between atoms: _234  and  _235
REMARK  107  A    between atoms: _239  and  _241
REMARK  108  A    between atoms: _241  and  _242
REMARK  109  A    between atoms: _241  and  _244
REMARK  110  A    between atoms: _244  and  _245
REMARK  111  A    between atoms: _245  and  _246
REMARK  112  A    between atoms: _246  and  _247
REMARK  113  A    between atoms: _256  and  _258
REMARK  114  A    between atoms: _258  and  _259
REMARK  115  A    between atoms: _258  and  _261
REMARK  116  A    between atoms: _261  and  _262
REMARK  117  A    between atoms: _265  and  _267
REMARK  118  A    between atoms: _267  and  _268
REMARK  119  A    between atoms: _271  and  _273
REMARK  120  A    between atoms: _273  and  _274
REMARK  121  A    between atoms: _273  and  _276
REMARK  122  A    between atoms: _276  and  _277
REMARK  123  A    between atoms: _277  and  _278
REMARK  124  A    between atoms: _283  and  _285
REMARK  125  A    between atoms: _285  and  _286
REMARK  126  A    between atoms: _285  and  _288
REMARK  127  A    between atoms: _288  and  _289
REMARK  128  A    between atoms: _289  and  _290
REMARK  129  A    between atoms: _293  and  _295
REMARK  130  A    between atoms: _295  and  _296
REMARK  131  A    between atoms: _298  and  _300
REMARK  132  A    between atoms: _300  and  _301
REMARK  133  A    between atoms: _300  and  _303
REMARK  134  A    between atoms: _305  and  _307
REMARK  135  A    between atoms: _307  and  _308
REMARK  136  A    between atoms: _307  and  _310
REMARK  137  A    between atoms: _310  and  _311
REMARK  138  A    between atoms: _314  and  _316
REMARK  139  A    between atoms: _316  and  _317
REMARK  140  A    between atoms: _316  and  _319
REMARK  141  A    between atoms: _322  and  _324
REMARK  142  A    between atoms: _324  and  _325
REMARK  143  A    between atoms: _328  and  _330
REMARK  144  A    between atoms: _330  and  _331
REMARK  145  A    between atoms: _330  and  _333
REMARK  146  A    between atoms: _333  and  _334
REMARK  147  A    between atoms: _336  and  _338
REMARK  148  A    between atoms: _338  and  _339
REMARK  149  A    between atoms: _338  and  _341
REMARK  150  A    between atoms: _341  and  _342
REMARK  151  A    between atoms: _345  and  _347
REMARK  152  A    between atoms: _347  and  _348
REMARK  153  A    between atoms: _347  and  _350
REMARK  154  A    between atoms: _350  and  _351
REMARK  155  A    between atoms: _356  and  _358
REMARK  156  A    between atoms: _358  and  _359
REMARK  157  A    between atoms: _358  and  _361
REMARK  158  A    between atoms: _361  and  _362
REMARK  159  A    between atoms: _362  and  _363
REMARK  160  A    between atoms: _363  and  _364
REMARK  161  A    between atoms: _373  and  _375
REMARK  162  A    between atoms: _375  and  _376
REMARK  163  A    between atoms: _378  and  _380
REMARK  164  A    between atoms: _380  and  _381
REMARK  165  A    between atoms: _380  and  _383
REMARK  166  A    between atoms: _386  and  _388
REMARK  167  A    between atoms: _388  and  _389
REMARK  168  A    between atoms: _388  and  _391
REMARK  169  A    between atoms: _391  and  _392
REMARK  170  A    between atoms: _395  and  _397
REMARK  171  A    between atoms: _397  and  _398
REMARK  172  A    between atoms: _397  and  _400
REMARK  173  A    between atoms: _400  and  _401
REMARK  174  A    between atoms: _401  and  _402
REMARK  175  A    between atoms: _402  and  _403
REMARK  176  A    between atoms: _403  and  _404
REMARK  177  A    between atoms: _408  and  _410
REMARK  178  A    between atoms: _410  and  _411
REMARK  179  A    between atoms: _410  and  _413
REMARK  180  A    between atoms: _413  and  _414
REMARK  181  A    between atoms: _414  and  _415
REMARK  182  A    between atoms: _415  and  _416
REMARK  183  A    between atoms: _416  and  _417
REMARK  184  A    between atoms: _421  and  _423
REMARK  185  A    between atoms: _423  and  _424
REMARK  186  A    between atoms: _423  and  _426
REMARK  187  A    between atoms: _426  and  _427
REMARK  188  A    between atoms: _432  and  _434
REMARK  189  A    between atoms: _434  and  _435
REMARK  190  A    between atoms: _434  and  _437
REMARK  191  A    between atoms: _437  and  _438
REMARK  192  A    between atoms: _443  and  _445
REMARK  193  A    between atoms: _445  and  _446
REMARK  194  A    between atoms: _449  and  _451
REMARK  195  A    between atoms: _451  and  _452
REMARK  196  A    between atoms: _451  and  _454
REMARK  197  A    between atoms: _454  and  _455
REMARK  198  A    between atoms: _460  and  _462
REMARK  199  A    between atoms: _462  and  _463
REMARK  200  A    between atoms: _466  and  _468
REMARK  201  A    between atoms: _468  and  _469
REMARK  202  A    between atoms: _472  and  _474
REMARK  203  A    between atoms: _474  and  _475
REMARK  204  A    between atoms: _474  and  _477
REMARK  205  A    between atoms: _477  and  _478
REMARK  206  A    between atoms: _483  and  _485
REMARK  207  A    between atoms: _485  and  _486
REMARK  208  A    between atoms: _485  and  _488
REMARK  209  A    between atoms: _488  and  _489
REMARK  210  A    between atoms: _492  and  _494
REMARK  211  A    between atoms: _494  and  _495
REMARK  212  A    between atoms: _497  and  _499
REMARK  213  A    between atoms: _499  and  _500
REMARK  214  A    between atoms: _499  and  _502
REMARK  215  A    between atoms: _502  and  _503
REMARK  216  A    between atoms: _503  and  _504
REMARK  217  A    between atoms: _507  and  _509
REMARK  218  A    between atoms: _509  and  _510
REMARK  219  A    between atoms: _509  and  _512
REMARK  220  A    between atoms: _512  and  _513
REMARK  221  A    between atoms: _516  and  _518
REMARK  222  A    between atoms: _518  and  _519
REMARK  223  A    between atoms: _518  and  _521
REMARK  224  A    between atoms: _521  and  _522
REMARK  225  A    between atoms: _524  and  _526
REMARK  226  A    between atoms: _526  and  _527
REMARK  227  A    between atoms: _526  and  _529
REMARK  228  A    between atoms: _529  and  _530
REMARK  229  A    between atoms: _533  and  _535
REMARK  230  A    between atoms: _535  and  _536
REMARK  231  A    between atoms: _535  and  _538
REMARK  232  A    between atoms: _538  and  _539
REMARK  233  A    between atoms: _539  and  _540
REMARK  234  A    between atoms: _542  and  _544
REMARK  235  A    between atoms: _544  and  _545
REMARK  236  A    between atoms: _548  and  _550
REMARK  237  A    between atoms: _550  and  _551
REMARK  238  A    between atoms: _554  and  _556
REMARK  239  A    between atoms: _556  and  _557
REMARK  240  A    between atoms: _556  and  _559
REMARK  241  A    between atoms: _559  and  _560
REMARK  242  A    between atoms: _563  and  _565
REMARK  243  A    between atoms: _565  and  _566
REMARK  244  A    between atoms: _569  and  _571
REMARK  245  A    between atoms: _571  and  _572
REMARK                            x       y       z     vdW  Elec       q    Type
REMARK                         _______ _______ _______ _____ _____    ______ ____
ROOT
ATOM      1  CA  SER A   7      83.875  14.403  -5.787  0.00  0.00    +0.178 C 
ENDROOT
BRANCH   1   2
ATOM      2  C   SER A   7      84.375  15.104  -4.531  0.00  0.00    +0.243 C 
ATOM      3  N   THR A   8      85.396  14.533  -3.895  0.00  0.00    -0.295 N 
ATOM      4  H   THR A   8      85.766  13.627  -4.246  0.00  0.00    +0.150 HD
ATOM      5  O   SER A   7      83.849  16.146  -4.152  0.00  0.00    -0.273 OA
BRANCH   3   6
ATOM      6  CA  THR A   8      86.012  15.142  -2.719  0.00  0.00    +0.176 C 
BRANCH   6   7
ATOM      7  C   THR A   8      86.688  16.456  -3.100  0.00  0.00    +0.243 C 
ATOM      8  O   THR A   8      86.751  17.383  -2.295  0.00  0.00    -0.273 OA
ATOM      9  N   ASN A   9      87.181  16.524  -4.335  0.00  0.00    -0.297 N 
ATOM     10  H   ASN A   9      87.110  15.686  -4.947  0.00  0.00    +0.150 HD
BRANCH   9  11
ATOM     11  CA  ASN A   9      87.816  17.726  -4.864  0.00  0.00    +0.158 C 
BRANCH  11  12
ATOM     12  C   ASN A   9      86.799  18.846  -5.058  0.00  0.00    +0.241 C 
ATOM     13  O   ASN A   9      87.123  20.020  -4.888  0.00  0.00    -0.273 OA
ATOM     14  N   ARG A  10      85.572  18.473  -5.414  0.00  0.00    -0.297 N 
ATOM     15  H   ARG A  10      85.383  17.464  -5.581  0.00  0.00    +0.150 HD
BRANCH  14  16
ATOM     16  CA  ARG A  10      84.481  19.430  -5.578  0.00  0.00    +0.149 C 
BRANCH  16  17
ATOM     17  C   ARG A  10      84.061  20.009  -4.231  0.00  0.00    +0.241 C 
ATOM     18  N   GLY A  11      84.062  19.172  -3.196  0.00  0.00    -0.296 N 
ATOM     19  H   GLY A  11      84.282  18.169  -3.359  0.00  0.00    +0.150 HD
ATOM     20  O   ARG A  10      83.740  21.189  -4.135  0.00  0.00    -0.273 OA
BRANCH  18  21
ATOM     21  CA  GLY A  11      83.766  19.617  -1.846  0.00  0.00    +0.163 C 
BRANCH  21  22
ATOM     22  C   GLY A  11      84.820  20.568  -1.313  0.00  0.00    +0.229 C 
ATOM     23  O   GLY A  11      84.501  21.503  -0.581  0.00  0.00    -0.286 OA
ENDBRANCH  21  22
ENDBRANCH  18  21
ENDBRANCH  16  17
BRANCH  16  24
ATOM     24  CB  ARG A  10      83.279  18.772  -6.261  0.00  0.00    +0.033 C 
BRANCH  24  25
ATOM     25  CG  ARG A  10      82.228  19.760  -6.737  0.00  0.00    +0.045 C 
BRANCH  25  26
ATOM     26  CD  ARG A  10      81.051  19.123  -7.455  0.00  0.00    +0.174 C 
BRANCH  26  27
ATOM     27  NE  ARG A  10      80.182  18.385  -6.538  0.00  0.00    -0.265 N 
ATOM     28  HE  ARG A  10      80.582  18.100  -5.621  0.00  0.00    +0.259 HD
ATOM     29  CZ  ARG A  10      78.917  18.051  -6.789  0.00  0.00    +0.342 C 
ATOM     30  NH2 ARG A  10      78.231  17.374  -5.877  0.00  0.00    -0.292 N 
ATOM     31 HH21 ARG A  10      78.682  17.110  -4.978  0.00  0.00    +0.255 HD
ATOM     32 HH22 ARG A  10      77.243  17.108  -6.062  0.00  0.00    +0.255 HD
ATOM     33  NH1 ARG A  10      78.328  18.385  -7.935  0.00  0.00    -0.292 N 
ATOM     34 HH11 ARG A  10      77.339  18.114  -8.110  0.00  0.00    +0.255 HD
ATOM     35 HH12 ARG A  10      78.856  18.917  -8.656  0.00  0.00    +0.255 HD
ENDBRANCH  26  27
ENDBRANCH  25  26
ENDBRANCH  24  25
ENDBRANCH  16  24
ENDBRANCH  14  16
ENDBRANCH  11  12
BRANCH  11  36
ATOM     36  CB  ASN A   9      88.513  17.414  -6.192  0.00  0.00    +0.114 C 
BRANCH  36  37
ATOM     37  CG  ASN A   9      89.411  18.538  -6.659  0.00  0.00    +0.222 C 
ATOM     38  OD1 ASN A   9      90.372  18.895  -5.986  0.00  0.00    -0.275 OA
ATOM     39  ND2 ASN A   9      89.105  19.098  -7.823  0.00  0.00    -0.329 N 
ATOM     40 HD21 ASN A   9      89.690  19.872  -8.198  0.00  0.00    +0.145 HD
ATOM     41 HD22 ASN A   9      88.280  18.763  -8.360  0.00  0.00    +0.145 HD
ENDBRANCH  36  37
ENDBRANCH  11  36
ENDBRANCH   9  11
ENDBRANCH   6   7
BRANCH   6  42
ATOM     42  CB  THR A   8      87.041  14.183  -2.080  0.00  0.00    +0.137 C 
ATOM     43  CG2 THR A   8      87.554  14.731  -0.750  0.00  0.00    +0.034 C 
BRANCH  42  44
ATOM     44  OG1 THR A   8      86.404  12.948  -1.724  0.00  0.00    -0.382 OA
ATOM     45  HG1 THR A   8      86.026  12.527  -2.536  0.00  0.00    +0.210 HD
ENDBRANCH  42  44
ENDBRANCH   6  42
ENDBRANCH   3   6
ENDBRANCH   1   2
BRANCH   1  47
ATOM     46  C   ALA A   6      85.796  14.726  -7.264  0.00  0.00    +0.241 C 
ATOM     47  N   SER A   7      84.990  13.908  -6.592  0.00  0.00    -0.295 N 
ATOM     48  H   SER A   7      85.159  12.883  -6.641  0.00  0.00    +0.150 HD
ATOM     49  O   ALA A   6      85.669  15.948  -7.256  0.00  0.00    -0.273 OA
BRANCH  46  50
ATOM     50  CA  ALA A   6      86.922  14.072  -8.059  0.00  0.00    +0.149 C 
ATOM     51  CB  ALA A   6      86.418  13.640  -9.430  0.00  0.00    +0.031 C 
BRANCH  50  54
ATOM     52  C   VAL A   5      88.161  13.072  -6.200  0.00  0.00    +0.241 C 
ATOM     53  O   VAL A   5      88.336  14.158  -5.653  0.00  0.00    -0.273 OA
ATOM     54  N   ALA A   6      87.494  12.932  -7.344  0.00  0.00    -0.297 N 
ATOM     55  H   ALA A   6      87.376  11.979  -7.743  0.00  0.00    +0.150 HD
BRANCH  52  56
ATOM     56  CA  VAL A   5      88.716  11.794  -5.572  0.00  0.00    +0.149 C 
BRANCH  56  59
ATOM     57  C   LEU A   4      86.603  10.739  -4.943  0.00  0.00    +0.241 C 
ATOM     58  O   LEU A   4      86.291  11.672  -4.204  0.00  0.00    -0.273 OA
ATOM     59  N   VAL A   5      87.737  10.711  -5.637  0.00  0.00    -0.297 N 
ATOM     60  H   VAL A   5      87.934   9.891  -6.246  0.00  0.00    +0.150 HD
BRANCH  57  61
ATOM     61  CA  LEU A   4      85.677   9.533  -5.100  0.00  0.00    +0.149 C 
BRANCH  61  63
ATOM     62  C   CYS A   3      84.820   9.979  -7.335  0.00  0.00    +0.242 C 
ATOM     63  N   LEU A   4      85.489   9.174  -6.509  0.00  0.00    -0.297 N 
ATOM     64  H   LEU A   4      85.882   8.281  -6.869  0.00  0.00    +0.150 HD
ATOM     65  O   CYS A   3      84.381  11.064  -6.974  0.00  0.00    -0.273 OA
BRANCH  62  66
ATOM     66  CA  CYS A   3      84.611   9.532  -8.787  0.00  0.00    +0.160 C 
BRANCH  66  69
ATOM     67  C   GLY A   2      84.783   7.057  -8.877  0.00  0.00    +0.243 C 
ATOM     68  O   GLY A   2      83.768   6.850  -8.213  0.00  0.00    -0.273 OA
ATOM     69  N   CYS A   3      85.254   8.269  -9.164  0.00  0.00    -0.296 N 
ATOM     70  H   CYS A   3      86.146   8.324  -9.696  0.00  0.00    +0.150 HD
BRANCH  67  71
ATOM     71  CA  GLY A   2      85.601   5.901  -9.415  0.00  0.00    +0.176 C 
BRANCH  71  74
ATOM     72  C   GLU A   1      86.333   5.024  -7.267  0.00  0.00    +0.238 C 
ATOM     73  O   GLU A   1      86.822   6.102  -6.919  0.00  0.00    -0.274 OA
ATOM     74  N   GLY A   2      85.735   4.838  -8.440  0.00  0.00    -0.296 N 
ATOM     75  H   GLY A   2      85.351   3.898  -8.665  0.00  0.00    +0.150 HD
BRANCH  72  76
ATOM     76  CA  GLU A   1      86.378   3.821  -6.337  0.00  0.00    +0.145 C 
BRANCH  76  77
ATOM     77  N   GLU A   1      87.770   3.446  -6.118  0.00  0.00    -0.238 NA
ATOM     78  H   GLU A   1      88.295   3.891  -5.338  0.00  0.00    +0.142 HD
ENDBRANCH  76  77
BRANCH  76  79
ATOM     79  CB  GLU A   1      85.675   4.160  -5.016  0.00  0.00    +0.038 C 
BRANCH  79  80
ATOM     80  CG  GLU A   1      84.327   4.848  -5.212  0.00  0.00    +0.116 C 
BRANCH  80  81
ATOM     81  CD  GLU A   1      83.420   4.779  -4.000  0.00  0.00    +0.365 C 
ATOM     82  OE2 GLU A   1      83.926   4.674  -2.864  0.00  0.00    -0.246 OA
ATOM     83  OE1 GLU A   1      82.187   4.844  -4.193  0.00  0.00    -0.246 OA
ENDBRANCH  80  81
ENDBRANCH  79  80
ENDBRANCH  76  79
ENDBRANCH  72  76
ENDBRANCH  71  74
ENDBRANCH  67  71
ENDBRANCH  66  69
BRANCH  66  84
ATOM     84  CB  CYS A   3      83.112   9.523  -9.126  0.00  0.00    +0.098 C 
ATOM     85  SG  CYS A   3      82.770   9.352 -10.891  0.00  0.00    -0.080 S 
ENDBRANCH  66  84
ENDBRANCH  62  66
ENDBRANCH  61  63
BRANCH  61  86
ATOM     86  CB  LEU A   4      86.220   8.348  -4.287  0.00  0.00    +0.029 C 
BRANCH  86  87
ATOM     87  CG  LEU A   4      86.510   8.621  -2.802  0.00  0.00    +0.002 C 
ATOM     88  CD2 LEU A   4      85.291   9.202  -2.090  0.00  0.00    +0.000 C 
ATOM     89  CD1 LEU A   4      86.981   7.357  -2.104  0.00  0.00    +0.000 C 
ENDBRANCH  86  87
ENDBRANCH  61  86
ENDBRANCH  57  61
ENDBRANCH  56  59
BRANCH  56  90
ATOM     90  CB  VAL A   5      90.047  11.403  -6.265  0.00  0.00    +0.027 C 
ATOM     91  CG2 VAL A   5      90.726  10.269  -5.507  0.00  0.00    +0.002 C 
ATOM     92  CG1 VAL A   5      90.987  12.607  -6.380  0.00  0.00    +0.002 C 
ENDBRANCH  56  90
ENDBRANCH  52  56
ENDBRANCH  50  54
ENDBRANCH  46  50
ENDBRANCH   1  47
BRANCH   1  93
ATOM     93  CB  SER A   7      82.933  13.260  -5.406  0.00  0.00    +0.166 C 
BRANCH  93  94
ATOM     94  OG  SER A   7      81.868  13.725  -4.597  0.00  0.00    -0.380 OA
ATOM     95  H   SER A   7      81.352  14.409  -5.093  0.00  0.00    +0.211 HD
ENDBRANCH  93  94
ENDBRANCH   1  93
TORSDOF 39
REMARK  Name = ../refined-set-2016/3ccz/3ccz_pocket.pdb
REMARK  245 active torsions:
REMARK  status: ('A' for Active; 'I' for Inactive)
REMARK    1  A    between atoms: _1  and  _3
REMARK    2  A    between atoms: _3  and  _4
REMARK    3  A    between atoms: _3  and  _6
REMARK    4  A    between atoms: _6  and  _7
REMARK    5  A    between atoms: _7  and  _8
REMARK    6  A    between atoms: _11  and  _13
REMARK    7  A    between atoms: _13  and  _14
REMARK    8  A    between atoms: _13  and  _16
REMARK    9  A    between atoms: _16  and  _17
REMARK   10  A    between atoms: _20  and  _22
REMARK   11  A    between atoms: _22  and  _23
REMARK   12  A    between atoms: _22  and  _25
REMARK   13  A    between atoms: _25  and  _26
REMARK   14  A    between atoms: _26  and  _27
REMARK   15  A    between atoms: _27  and  _28
REMARK   16  A    between atoms: _37  and  _39
REMARK   17  A    between atoms: _39  and  _40
REMARK   18  A    between atoms: _43  and  _44
REMARK   19  A    between atoms: _49  and  _51
REMARK   20  A    between atoms: _51  and  _52
REMARK   21  A    between atoms: _51  and  _54
REMARK   22  A    between atoms: _54  and  _55
REMARK   23  A    between atoms: _55  and  _56
REMARK   24  A    between atoms: _58  and  _60
REMARK   25  A    between atoms: _60  and  _61
REMARK   26  A    between atoms: _60  and  _63
REMARK   27  A    between atoms: _63  and  _64
REMARK   28  A    between atoms: _64  and  _65
REMARK   29  A    between atoms: _67  and  _69
REMARK   30  A    between atoms: _69  and  _70
REMARK   31  A    between atoms: _69  and  _72
REMARK   32  A    between atoms: _72  and  _73
REMARK   33  A    between atoms: _78  and  _80
REMARK   34  A    between atoms: _80  and  _81
REMARK   35  A    between atoms: _80  and  _83
REMARK   36  A    between atoms: _83  and  _84
REMARK   37  A    between atoms: _84  and  _85
REMARK   38  A    between atoms: _87  and  _89
REMARK   39  A    between atoms: _89  and  _90
REMARK   40  A    between atoms: _89  and  _92
REMARK   41  A    between atoms: _92  and  _93
REMARK   42  A    between atoms: _96  and  _98
REMARK   43  A    between atoms: _98  and  _99
REMARK   44  A    between atoms: _98  and  _101
REMARK   45  A    between atoms: _101  and  _102
REMARK   46  A    between atoms: _104  and  _106
REMARK   47  A    between atoms: _106  and  _107
REMARK   48  A    between atoms: _106  and  _109
REMARK   49  A    between atoms: _109  and  _110
REMARK   50  A    between atoms: _110  and  _111
REMARK   51  A    between atoms: _111  and  _112
REMARK   52  A    between atoms: _112  and  _113
REMARK   53  A    between atoms: _117  and  _119
REMARK   54  A    between atoms: _119  and  _120
REMARK   55  A    between atoms: _119  and  _122
REMARK   56  A    between atoms: _122  and  _123
REMARK   57  A    between atoms: _126  and  _128
REMARK   58  A    between atoms: _128  and  _129
REMARK   59  A    between atoms: _128  and  _131
REMARK   60  A    between atoms: _131  and  _132
REMARK   61  A    between atoms: _132  and  _133
REMARK   62  A    between atoms: _136  and  _138
REMARK   63  A    between atoms: _138  and  _139
REMARK   64  A    between atoms: _142  and  _144
REMARK   65  A    between atoms: _144  and  _145
REMARK   66  A    between atoms: _144  and  _147
REMARK   67  A    between atoms: _150  and  _152
REMARK   68  A    between atoms: _152  and  _153
REMARK   69  A    between atoms: _152  and  _155
REMARK   70  A    between atoms: _155  and  _156
REMARK   71  A    between atoms: _158  and  _160
REMARK   72  A    between atoms: _160  and  _161
REMARK   73  A    between atoms: _163  and  _165
REMARK   74  A    between atoms: _165  and  _166
REMARK   75  A    between atoms: _165  and  _168
REMARK   76  A    between atoms: _168  and  _169
REMARK   77  A    between atoms: _174  and  _176
REMARK   78  A    between atoms: _176  and  _177
REMARK   79  A    between atoms: _176  and  _179
REMARK   80  A    between atoms: _179  and  _180
REMARK   81  A    between atoms: _185  and  _186
REMARK   82  A    between atoms: _188  and  _190
REMARK   83  A    between atoms: _190  and  _191
REMARK   84  A    between atoms: _190  and  _193
REMARK   85  A    between atoms: _195  and  _197
REMARK   86  A    between atoms: _197  and  _198
REMARK   87  A    between atoms: _197  and  _200
REMARK   88  A    between atoms: _200  and  _201
REMARK   89  A    between atoms: _204  and  _206
REMARK   90  A    between atoms: _206  and  _207
REMARK   91  A    between atoms: _206  and  _209
REMARK   92  A    between atoms: _209  and  _210
REMARK   93  A    between atoms: _213  and  _215
REMARK   94  A    between atoms: _215  and  _216
REMARK   95  A    between atoms: _215  and  _218
REMARK   96  A    between atoms: _218  and  _219
REMARK   97  A    between atoms: _219  and  _220
REMARK   98  A    between atoms: _220  and  _221
REMARK   99  A    between atoms: _221  and  _222
REMARK  100  A    between atoms: _226  and  _228
REMARK  101  A    between atoms: _228  and  _229
REMARK  102  A    between atoms: _228  and  _231
REMARK  103  A    between atoms: _231  and  _232
REMARK  104  A    between atoms: _232  and  _233
REMARK  105  A    between atoms: _233  and  _234
REMARK  106  A    between atoms: _234  and  _235
REMARK  107  A    between atoms: _239  and  _241
REMARK  108  A    between atoms: _241  and  _242
REMARK  109  A    between atoms: _241  and  _244
REMARK  110  A    between atoms: _244  and  _245
REMARK  111  A    between atoms: _245  and  _246
REMARK  112  A    between atoms: _246  and  _247
REMARK  113  A    between atoms: _256  and  _258
REMARK  114  A    between atoms: _258  and  _259
REMARK  115  A    between atoms: _258  and  _261
REMARK  116  A    between atoms: _261  and  _262
REMARK  117  A    between atoms: _265  and  _267
REMARK  118  A    between atoms: _267  and  _268
REMARK  119  A    between atoms: _271  and  _273
REMARK  120  A    between atoms: _273  and  _274
REMARK  121  A    between atoms: _273  and  _276
REMARK  122  A    between atoms: _276  and  _277
REMARK  123  A    between atoms: _277  and  _278
REMARK  124  A    between atoms: _283  and  _285
REMARK  125  A    between atoms: _285  and  _286
REMARK  126  A    between atoms: _285  and  _288
REMARK  127  A    between atoms: _288  and  _289
REMARK  128  A    between atoms: _289  and  _290
REMARK  129  A    between atoms: _293  and  _295
REMARK  130  A    between atoms: _295  and  _296
REMARK  131  A    between atoms: _298  and  _300
REMARK  132  A    between atoms: _300  and  _301
REMARK  133  A    between atoms: _300  and  _303
REMARK  134  A    between atoms: _305  and  _307
REMARK  135  A    between atoms: _307  and  _308
REMARK  136  A    between atoms: _307  and  _310
REMARK  137  A    between atoms: _310  and  _311
REMARK  138  A    between atoms: _314  and  _316
REMARK  139  A    between atoms: _316  and  _317
REMARK  140  A    between atoms: _316  and  _319
REMARK  141  A    between atoms: _322  and  _324
REMARK  142  A    between atoms: _324  and  _325
REMARK  143  A    between atoms: _328  and  _330
REMARK  144  A    between atoms: _330  and  _331
REMARK  145  A    between atoms: _330  and  _333
REMARK  146  A    between atoms: _333  and  _334
REMARK  147  A    between atoms: _336  and  _338
REMARK  148  A    between atoms: _338  and  _339
REMARK  149  A    between atoms: _338  and  _341
REMARK  150  A    between atoms: _341  and  _342
REMARK  151  A    between atoms: _345  and  _347
REMARK  152  A    between atoms: _347  and  _348
REMARK  153  A    between atoms: _347  and  _350
REMARK  154  A    between atoms: _350  and  _351
REMARK  155  A    between atoms: _356  and  _358
REMARK  156  A    between atoms: _358  and  _359
REMARK  157  A    between atoms: _358  and  _361
REMARK  158  A    between atoms: _361  and  _362
REMARK  159  A    between atoms: _362  and  _363
REMARK  160  A    between atoms: _363  and  _364
REMARK  161  A    between atoms: _373  and  _375
REMARK  162  A    between atoms: _375  and  _376
REMARK  163  A    between atoms: _378  and  _380
REMARK  164  A    between atoms: _380  and  _381
REMARK  165  A    between atoms: _380  and  _383
REMARK  166  A    between atoms: _386  and  _388
REMARK  167  A    between atoms: _388  and  _389
REMARK  168  A    between atoms: _388  and  _391
REMARK  169  A    between atoms: _391  and  _392
REMARK  170  A    between atoms: _395  and  _397
REMARK  171  A    between atoms: _397  and  _398
REMARK  172  A    between atoms: _397  and  _400
REMARK  173  A    between atoms: _400  and  _401
REMARK  174  A    between atoms: _401  and  _402
REMARK  175  A    between atoms: _402  and  _403
REMARK  176  A    between atoms: _403  and  _404
REMARK  177  A    between atoms: _408  and  _410
REMARK  178  A    between atoms: _410  and  _411
REMARK  179  A    between atoms: _410  and  _413
REMARK  180  A    between atoms: _413  and  _414
REMARK  181  A    between atoms: _414  and  _415
REMARK  182  A    between atoms: _415  and  _416
REMARK  183  A    between atoms: _416  and  _417
REMARK  184  A    between atoms: _421  and  _423
REMARK  185  A    between atoms: _423  and  _424
REMARK  186  A    between atoms: _423  and  _426
REMARK  187  A    between atoms: _426  and  _427
REMARK  188  A    between atoms: _432  and  _434
REMARK  189  A    between atoms: _434  and  _435
REMARK  190  A    between atoms: _434  and  _437
REMARK  191  A    between atoms: _437  and  _438
REMARK  192  A    between atoms: _443  and  _445
REMARK  193  A    between atoms: _445  and  _446
REMARK  194  A    between atoms: _449  and  _451
REMARK  195  A    between atoms: _451  and  _452
REMARK  196  A    between atoms: _451  and  _454
REMARK  197  A    between atoms: _454  and  _455
REMARK  198  A    between atoms: _460  and  _462
REMARK  199  A    between atoms: _462  and  _463
REMARK  200  A    between atoms: _466  and  _468
REMARK  201  A    between atoms: _468  and  _469
REMARK  202  A    between atoms: _472  and  _474
REMARK  203  A    between atoms: _474  and  _475
REMARK  204  A    between atoms: _474  and  _477
REMARK  205  A    between atoms: _477  and  _478
REMARK  206  A    between atoms: _483  and  _485
REMARK  207  A    between atoms: _485  and  _486
REMARK  208  A    between atoms: _485  and  _488
REMARK  209  A    between atoms: _488  and  _489
REMARK  210  A    between atoms: _492  and  _494
REMARK  211  A    between atoms: _494  and  _495
REMARK  212  A    between atoms: _497  and  _499
REMARK  213  A    between atoms: _499  and  _500
REMARK  214  A    between atoms: _499  and  _502
REMARK  215  A    between atoms: _502  and  _503
REMARK  216  A    between atoms: _503  and  _504
REMARK  217  A    between atoms: _507  and  _509
REMARK  218  A    between atoms: _509  and  _510
REMARK  219  A    between atoms: _509  and  _512
REMARK  220  A    between atoms: _512  and  _513
REMARK  221  A    between atoms: _516  and  _518
REMARK  222  A    between atoms: _518  and  _519
REMARK  223  A    between atoms: _518  and  _521
REMARK  224  A    between atoms: _521  and  _522
REMARK  225  A    between atoms: _524  and  _526
REMARK  226  A    between atoms: _526  and  _527
REMARK  227  A    between atoms: _526  and  _529
REMARK  228  A    between atoms: _529  and  _530
REMARK  229  A    between atoms: _533  and  _535
REMARK  230  A    between atoms: _535  and  _536
REMARK  231  A    between atoms: _535  and  _538
REMARK  232  A    between atoms: _538  and  _539
REMARK  233  A    between atoms: _539  and  _540
REMARK  234  A    between atoms: _542  and  _544
REMARK  235  A    between atoms: _544  and  _545
REMARK  236  A    between atoms: _548  and  _550
REMARK  237  A    between atoms: _550  and  _551
REMARK  238  A    between atoms: _554  and  _556
REMARK  239  A    between atoms: _556  and  _557
REMARK  240  A    between atoms: _556  and  _559
REMARK  241  A    between atoms: _559  and  _560
REMARK  242  A    between atoms: _563  and  _565
REMARK  243  A    between atoms: _565  and  _566
REMARK  244  A    between atoms: _569  and  _571
REMARK  245  A    between atoms: _571  and  _572
REMARK                            x       y       z     vdW  Elec       q    Type
REMARK                         _______ _______ _______ _____ _____    ______ ____
ROOT
ATOM      1  CA  LEU A   2      77.341  21.880  -5.652  0.00  0.00    +0.149 C 
ENDROOT
BRANCH   1   3
ATOM      2  C   VAL A   1      78.905  23.058  -7.120  0.00  0.00    +0.238 C 
ATOM      3  N   LEU A   2      78.002  23.093  -6.141  0.00  0.00    -0.297 N 
ATOM      4  H   LEU A   2      77.759  24.008  -5.711  0.00  0.00    +0.150 HD
ATOM      5  O   VAL A   1      79.170  22.035  -7.750  0.00  0.00    -0.274 OA
BRANCH   2   6
ATOM      6  CA  VAL A   1      79.621  24.369  -7.444  0.00  0.00    +0.145 C 
BRANCH   6   7
ATOM      7  CB  VAL A   1      80.653  24.672  -6.329  0.00  0.00    +0.025 C 
ATOM      8  CG2 VAL A   1      81.679  23.542  -6.212  0.00  0.00    +0.002 C 
ATOM      9  CG1 VAL A   1      81.349  26.008  -6.588  0.00  0.00    +0.002 C 
ENDBRANCH   6   7
BRANCH   6  10
ATOM     10  N   VAL A   1      78.673  25.471  -7.616  0.00  0.00    -0.238 NA
ATOM     11  H   VAL A   1      78.467  26.087  -6.804  0.00  0.00    +0.142 HD
ENDBRANCH   6  10
ENDBRANCH   2   6
ENDBRANCH   1   3
BRANCH   1  12
ATOM     12  C   LEU A   2      76.020  21.552  -6.363  0.00  0.00    +0.241 C 
ATOM     13  O   LEU A   2      75.444  20.488  -6.129  0.00  0.00    -0.273 OA
ATOM     14  N   LYS A   3      75.548  22.454  -7.225  0.00  0.00    -0.298 N 
ATOM     15  H   LYS A   3      76.033  23.370  -7.304  0.00  0.00    +0.150 HD
BRANCH  14  16
ATOM     16  CA  LYS A   3      74.370  22.205  -8.067  0.00  0.00    +0.137 C 
BRANCH  16  17
ATOM     17  C   LYS A   3      73.109  21.871  -7.258  0.00  0.00    +0.227 C 
ATOM     18  O   LYS A   3      72.338  20.979  -7.621  0.00  0.00    -0.286 OA
ENDBRANCH  16  17
BRANCH  16  19
ATOM     19  CB  LYS A   3      74.663  21.092  -9.085  0.00  0.00    +0.028 C 
BRANCH  19  20
ATOM     20  CG  LYS A   3      75.995  21.232  -9.817  0.00  0.00    -0.000 C 
BRANCH  20  21
ATOM     21  CD  LYS A   3      76.083  22.543 -10.586  0.00  0.00    -0.024 C 
BRANCH  21  22
ATOM     22  CE  LYS A   3      77.246  22.541 -11.567  0.00  0.00    -0.086 C 
BRANCH  22  23
ATOM     23  NZ  LYS A   3      78.567  22.541 -10.877  0.00  0.00    +0.380 N 
ATOM     24  HZ1 LYS A   3      78.646  21.692 -10.281  0.00  0.00    -0.089 HD
ATOM     25  HZ2 LYS A   3      78.647  23.391 -10.283  0.00  0.00    -0.089 HD
ATOM     26  HZ3 LYS A   3      79.327  22.540 -11.587  0.00  0.00    -0.089 HD
ENDBRANCH  22  23
ENDBRANCH  21  22
ENDBRANCH  20  21
ENDBRANCH  19  20
ENDBRANCH  16  19
ENDBRANCH  14  16
ENDBRANCH   1  12
BRANCH   1  27
ATOM     27  CB  LEU A   2      77.122  21.974  -4.137  0.00  0.00    +0.029 C 
BRANCH  27  28
ATOM     28  CG  LEU A   2      78.394  22.079  -3.289  0.00  0.00    +0.002 C 
ATOM     29  CD2 LEU A   2      78.041  22.308  -1.826  0.00  0.00    +0.000 C 
ATOM     30  CD1 LEU A   2      79.269  20.837  -3.442  0.00  0.00    +0.000 C 
ENDBRANCH  27  28
ENDBRANCH   1  27
TORSDOF 14
REMARK  Name = ../refined-set-2016/3ccz/3ccz_pocket.pdb
REMARK  245 active torsions:
REMARK  status: ('A' for Active; 'I' for Inactive)
REMARK    1  A    between atoms: _1  and  _3
REMARK    2  A    between atoms: _3  and  _4
REMARK    3  A    between atoms: _3  and  _6
REMARK    4  A    between atoms: _6  and  _7
REMARK    5  A    between atoms: _7  and  _8
REMARK    6  A    between atoms: _11  and  _13
REMARK    7  A    between atoms: _13  and  _14
REMARK    8  A    between atoms: _13  and  _16
REMARK    9  A    between atoms: _16  and  _17
REMARK   10  A    between atoms: _20  and  _22
REMARK   11  A    between atoms: _22  and  _23
REMARK   12  A    between atoms: _22  and  _25
REMARK   13  A    between atoms: _25  and  _26
REMARK   14  A    between atoms: _26  and  _27
REMARK   15  A    between atoms: _27  and  _28
REMARK   16  A    between atoms: _37  and  _39
REMARK   17  A    between atoms: _39  and  _40
REMARK   18  A    between atoms: _43  and  _44
REMARK   19  A    between atoms: _49  and  _51
REMARK   20  A    between atoms: _51  and  _52
REMARK   21  A    between atoms: _51  and  _54
REMARK   22  A    between atoms: _54  and  _55
REMARK   23  A    between atoms: _55  and  _56
REMARK   24  A    between atoms: _58  and  _60
REMARK   25  A    between atoms: _60  and  _61
REMARK   26  A    between atoms: _60  and  _63
REMARK   27  A    between atoms: _63  and  _64
REMARK   28  A    between atoms: _64  and  _65
REMARK   29  A    between atoms: _67  and  _69
REMARK   30  A    between atoms: _69  and  _70
REMARK   31  A    between atoms: _69  and  _72
REMARK   32  A    between atoms: _72  and  _73
REMARK   33  A    between atoms: _78  and  _80
REMARK   34  A    between atoms: _80  and  _81
REMARK   35  A    between atoms: _80  and  _83
REMARK   36  A    between atoms: _83  and  _84
REMARK   37  A    between atoms: _84  and  _85
REMARK   38  A    between atoms: _87  and  _89
REMARK   39  A    between atoms: _89  and  _90
REMARK   40  A    between atoms: _89  and  _92
REMARK   41  A    between atoms: _92  and  _93
REMARK   42  A    between atoms: _96  and  _98
REMARK   43  A    between atoms: _98  and  _99
REMARK   44  A    between atoms: _98  and  _101
REMARK   45  A    between atoms: _101  and  _102
REMARK   46  A    between atoms: _104  and  _106
REMARK   47  A    between atoms: _106  and  _107
REMARK   48  A    between atoms: _106  and  _109
REMARK   49  A    between atoms: _109  and  _110
REMARK   50  A    between atoms: _110  and  _111
REMARK   51  A    between atoms: _111  and  _112
REMARK   52  A    between atoms: _112  and  _113
REMARK   53  A    between atoms: _117  and  _119
REMARK   54  A    between atoms: _119  and  _120
REMARK   55  A    between atoms: _119  and  _122
REMARK   56  A    between atoms: _122  and  _123
REMARK   57  A    between atoms: _126  and  _128
REMARK   58  A    between atoms: _128  and  _129
REMARK   59  A    between atoms: _128  and  _131
REMARK   60  A    between atoms: _131  and  _132
REMARK   61  A    between atoms: _132  and  _133
REMARK   62  A    between atoms: _136  and  _138
REMARK   63  A    between atoms: _138  and  _139
REMARK   64  A    between atoms: _142  and  _144
REMARK   65  A    between atoms: _144  and  _145
REMARK   66  A    between atoms: _144  and  _147
REMARK   67  A    between atoms: _150  and  _152
REMARK   68  A    between atoms: _152  and  _153
REMARK   69  A    between atoms: _152  and  _155
REMARK   70  A    between atoms: _155  and  _156
REMARK   71  A    between atoms: _158  and  _160
REMARK   72  A    between atoms: _160  and  _161
REMARK   73  A    between atoms: _163  and  _165
REMARK   74  A    between atoms: _165  and  _166
REMARK   75  A    between atoms: _165  and  _168
REMARK   76  A    between atoms: _168  and  _169
REMARK   77  A    between atoms: _174  and  _176
REMARK   78  A    between atoms: _176  and  _177
REMARK   79  A    between atoms: _176  and  _179
REMARK   80  A    between atoms: _179  and  _180
REMARK   81  A    between atoms: _185  and  _186
REMARK   82  A    between atoms: _188  and  _190
REMARK   83  A    between atoms: _190  and  _191
REMARK   84  A    between atoms: _190  and  _193
REMARK   85  A    between atoms: _195  and  _197
REMARK   86  A    between atoms: _197  and  _198
REMARK   87  A    between atoms: _197  and  _200
REMARK   88  A    between atoms: _200  and  _201
REMARK   89  A    between atoms: _204  and  _206
REMARK   90  A    between atoms: _206  and  _207
REMARK   91  A    between atoms: _206  and  _209
REMARK   92  A    between atoms: _209  and  _210
REMARK   93  A    between atoms: _213  and  _215
REMARK   94  A    between atoms: _215  and  _216
REMARK   95  A    between atoms: _215  and  _218
REMARK   96  A    between atoms: _218  and  _219
REMARK   97  A    between atoms: _219  and  _220
REMARK   98  A    between atoms: _220  and  _221
REMARK   99  A    between atoms: _221  and  _222
REMARK  100  A    between atoms: _226  and  _228
REMARK  101  A    between atoms: _228  and  _229
REMARK  102  A    between atoms: _228  and  _231
REMARK  103  A    between atoms: _231  and  _232
REMARK  104  A    between atoms: _232  and  _233
REMARK  105  A    between atoms: _233  and  _234
REMARK  106  A    between atoms: _234  and  _235
REMARK  107  A    between atoms: _239  and  _241
REMARK  108  A    between atoms: _241  and  _242
REMARK  109  A    between atoms: _241  and  _244
REMARK  110  A    between atoms: _244  and  _245
REMARK  111  A    between atoms: _245  and  _246
REMARK  112  A    between atoms: _246  and  _247
REMARK  113  A    between atoms: _256  and  _258
REMARK  114  A    between atoms: _258  and  _259
REMARK  115  A    between atoms: _258  and  _261
REMARK  116  A    between atoms: _261  and  _262
REMARK  117  A    between atoms: _265  and  _267
REMARK  118  A    between atoms: _267  and  _268
REMARK  119  A    between atoms: _271  and  _273
REMARK  120  A    between atoms: _273  and  _274
REMARK  121  A    between atoms: _273  and  _276
REMARK  122  A    between atoms: _276  and  _277
REMARK  123  A    between atoms: _277  and  _278
REMARK  124  A    between atoms: _283  and  _285
REMARK  125  A    between atoms: _285  and  _286
REMARK  126  A    between atoms: _285  and  _288
REMARK  127  A    between atoms: _288  and  _289
REMARK  128  A    between atoms: _289  and  _290
REMARK  129  A    between atoms: _293  and  _295
REMARK  130  A    between atoms: _295  and  _296
REMARK  131  A    between atoms: _298  and  _300
REMARK  132  A    between atoms: _300  and  _301
REMARK  133  A    between atoms: _300  and  _303
REMARK  134  A    between atoms: _305  and  _307
REMARK  135  A    between atoms: _307  and  _308
REMARK  136  A    between atoms: _307  and  _310
REMARK  137  A    between atoms: _310  and  _311
REMARK  138  A    between atoms: _314  and  _316
REMARK  139  A    between atoms: _316  and  _317
REMARK  140  A    between atoms: _316  and  _319
REMARK  141  A    between atoms: _322  and  _324
REMARK  142  A    between atoms: _324  and  _325
REMARK  143  A    between atoms: _328  and  _330
REMARK  144  A    between atoms: _330  and  _331
REMARK  145  A    between atoms: _330  and  _333
REMARK  146  A    between atoms: _333  and  _334
REMARK  147  A    between atoms: _336  and  _338
REMARK  148  A    between atoms: _338  and  _339
REMARK  149  A    between atoms: _338  and  _341
REMARK  150  A    between atoms: _341  and  _342
REMARK  151  A    between atoms: _345  and  _347
REMARK  152  A    between atoms: _347  and  _348
REMARK  153  A    between atoms: _347  and  _350
REMARK  154  A    between atoms: _350  and  _351
REMARK  155  A    between atoms: _356  and  _358
REMARK  156  A    between atoms: _358  and  _359
REMARK  157  A    between atoms: _358  and  _361
REMARK  158  A    between atoms: _361  and  _362
REMARK  159  A    between atoms: _362  and  _363
REMARK  160  A    between atoms: _363  and  _364
REMARK  161  A    between atoms: _373  and  _375
REMARK  162  A    between atoms: _375  and  _376
REMARK  163  A    between atoms: _378  and  _380
REMARK  164  A    between atoms: _380  and  _381
REMARK  165  A    between atoms: _380  and  _383
REMARK  166  A    between atoms: _386  and  _388
REMARK  167  A    between atoms: _388  and  _389
REMARK  168  A    between atoms: _388  and  _391
REMARK  169  A    between atoms: _391  and  _392
REMARK  170  A    between atoms: _395  and  _397
REMARK  171  A    between atoms: _397  and  _398
REMARK  172  A    between atoms: _397  and  _400
REMARK  173  A    between atoms: _400  and  _401
REMARK  174  A    between atoms: _401  and  _402
REMARK  175  A    between atoms: _402  and  _403
REMARK  176  A    between atoms: _403  and  _404
REMARK  177  A    between atoms: _408  and  _410
REMARK  178  A    between atoms: _410  and  _411
REMARK  179  A    between atoms: _410  and  _413
REMARK  180  A    between atoms: _413  and  _414
REMARK  181  A    between atoms: _414  and  _415
REMARK  182  A    between atoms: _415  and  _416
REMARK  183  A    between atoms: _416  and  _417
REMARK  184  A    between atoms: _421  and  _423
REMARK  185  A    between atoms: _423  and  _424
REMARK  186  A    between atoms: _423  and  _426
REMARK  187  A    between atoms: _426  and  _427
REMARK  188  A    between atoms: _432  and  _434
REMARK  189  A    between atoms: _434  and  _435
REMARK  190  A    between atoms: _434  and  _437
REMARK  191  A    between atoms: _437  and  _438
REMARK  192  A    between atoms: _443  and  _445
REMARK  193  A    between atoms: _445  and  _446
REMARK  194  A    between atoms: _449  and  _451
REMARK  195  A    between atoms: _451  and  _452
REMARK  196  A    between atoms: _451  and  _454
REMARK  197  A    between atoms: _454  and  _455
REMARK  198  A    between atoms: _460  and  _462
REMARK  199  A    between atoms: _462  and  _463
REMARK  200  A    between atoms: _466  and  _468
REMARK  201  A    between atoms: _468  and  _469
REMARK  202  A    between atoms: _472  and  _474
REMARK  203  A    between atoms: _474  and  _475
REMARK  204  A    between atoms: _474  and  _477
REMARK  205  A    between atoms: _477  and  _478
REMARK  206  A    between atoms: _483  and  _485
REMARK  207  A    between atoms: _485  and  _486
REMARK  208  A    between atoms: _485  and  _488
REMARK  209  A    between atoms: _488  and  _489
REMARK  210  A    between atoms: _492  and  _494
REMARK  211  A    between atoms: _494  and  _495
REMARK  212  A    between atoms: _497  and  _499
REMARK  213  A    between atoms: _499  and  _500
REMARK  214  A    between atoms: _499  and  _502
REMARK  215  A    between atoms: _502  and  _503
REMARK  216  A    between atoms: _503  and  _504
REMARK  217  A    between atoms: _507  and  _509
REMARK  218  A    between atoms: _509  and  _510
REMARK  219  A    between atoms: _509  and  _512
REMARK  220  A    between atoms: _512  and  _513
REMARK  221  A    between atoms: _516  and  _518
REMARK  222  A    between atoms: _518  and  _519
REMARK  223  A    between atoms: _518  and  _521
REMARK  224  A    between atoms: _521  and  _522
REMARK  225  A    between atoms: _524  and  _526
REMARK  226  A    between atoms: _526  and  _527
REMARK  227  A    between atoms: _526  and  _529
REMARK  228  A    between atoms: _529  and  _530
REMARK  229  A    between atoms: _533  and  _535
REMARK  230  A    between atoms: _535  and  _536
REMARK  231  A    between atoms: _535  and  _538
REMARK  232  A    between atoms: _538  and  _539
REMARK  233  A    between atoms: _539  and  _540
REMARK  234  A    between atoms: _542  and  _544
REMARK  235  A    between atoms: _544  and  _545
REMARK  236  A    between atoms: _548  and  _550
REMARK  237  A    between atoms: _550  and  _551
REMARK  238  A    between atoms: _554  and  _556
REMARK  239  A    between atoms: _556  and  _557
REMARK  240  A    between atoms: _556  and  _559
REMARK  241  A    between atoms: _559  and  _560
REMARK  242  A    between atoms: _563  and  _565
REMARK  243  A    between atoms: _565  and  _566
REMARK  244  A    between atoms: _569  and  _571
REMARK  245  A    between atoms: _571  and  _572
REMARK                            x       y       z     vdW  Elec       q    Type
REMARK                         _______ _______ _______ _____ _____    ______ ____
ROOT
ATOM      1  C   LYS A   1      70.361  10.534   7.137  0.00  0.00    +0.238 C 
ATOM      2  O   LYS A   1      70.362   9.473   7.752  0.00  0.00    -0.274 OA
ATOM      3  N   ASN A   2      71.192  11.533   7.414  0.00  0.00    -0.298 N 
ATOM      4  H   ASN A   2      71.074  12.441   6.921  0.00  0.00    +0.150 HD
ENDROOT
BRANCH   1   5
ATOM      5  CA  LYS A   1      69.380  10.768   5.995  0.00  0.00    +0.145 C 
BRANCH   5   6
ATOM      6  N   LYS A   1      68.474  11.860   6.352  0.00  0.00    -0.238 NA
ATOM      7  H   LYS A   1      68.841  12.833   6.353  0.00  0.00    +0.142 HD
ENDBRANCH   5   6
BRANCH   5   8
ATOM      8  CB  LYS A   1      70.142  11.090   4.701  0.00  0.00    +0.026 C 
BRANCH   8   9
ATOM      9  CG  LYS A   1      71.296  10.139   4.361  0.00  0.00    -0.000 C 
BRANCH   9  10
ATOM     10  CD  LYS A   1      72.149  10.694   3.228  0.00  0.00    -0.024 C 
BRANCH  10  11
ATOM     11  CE  LYS A   1      73.434   9.896   3.036  0.00  0.00    -0.086 C 
BRANCH  11  12
ATOM     12  NZ  LYS A   1      73.166   8.547   2.469  0.00  0.00    +0.380 N 
ATOM     13  HZ1 LYS A   1      72.545   8.018   3.114  0.00  0.00    -0.089 HD
ATOM     14  HZ2 LYS A   1      74.064   8.036   2.354  0.00  0.00    -0.089 HD
ATOM     15  HZ3 LYS A   1      72.701   8.647   1.544  0.00  0.00    -0.089 HD
ENDBRANCH  11  12
ENDBRANCH  10  11
ENDBRANCH   9  10
ENDBRANCH   8   9
ENDBRANCH   5   8
ENDBRANCH   1   5
BRANCH   3  16
ATOM     16  CA  ASN A   2      72.269  11.390   8.394  0.00  0.00    +0.146 C 
BRANCH  16  17
ATOM     17  C   ASN A   2      71.814  11.332   9.853  0.00  0.00    +0.227 C 
ATOM     18  O   ASN A   2      72.527  10.780  10.685  0.00  0.00    -0.286 OA
ENDBRANCH  16  17
BRANCH  16  19
ATOM     19  CB  ASN A   2      73.318  12.493   8.208  0.00  0.00    +0.112 C 
BRANCH  19  20
ATOM     20  CG  ASN A   2      74.100  12.342   6.914  0.00  0.00    +0.222 C 
ATOM     21  ND2 ASN A   2      74.795  13.398   6.517  0.00  0.00    -0.329 N 
ATOM     22 HD21 ASN A   2      74.783  14.271   7.082  0.00  0.00    +0.145 HD
ATOM     23 HD22 ASN A   2      75.352  13.354   5.640  0.00  0.00    +0.145 HD
ATOM     24  OD1 ASN A   2      74.080  11.286   6.282  0.00  0.00    -0.275 OA
ENDBRANCH  19  20
ENDBRANCH  16  19
ENDBRANCH   3  16
TORSDOF 11
REMARK  Name = ../refined-set-2016/3ccz/3ccz_pocket.pdb
REMARK  245 active torsions:
REMARK  status: ('A' for Active; 'I' for Inactive)
REMARK    1  A    between atoms: _1  and  _3
REMARK    2  A    between atoms: _3  and  _4
REMARK    3  A    between atoms: _3  and  _6
REMARK    4  A    between atoms: _6  and  _7
REMARK    5  A    between atoms: _7  and  _8
REMARK    6  A    between atoms: _11  and  _13
REMARK    7  A    between atoms: _13  and  _14
REMARK    8  A    between atoms: _13  and  _16
REMARK    9  A    between atoms: _16  and  _17
REMARK   10  A    between atoms: _20  and  _22
REMARK   11  A    between atoms: _22  and  _23
REMARK   12  A    between atoms: _22  and  _25
REMARK   13  A    between atoms: _25  and  _26
REMARK   14  A    between atoms: _26  and  _27
REMARK   15  A    between atoms: _27  and  _28
REMARK   16  A    between atoms: _37  and  _39
REMARK   17  A    between atoms: _39  and  _40
REMARK   18  A    between atoms: _43  and  _44
REMARK   19  A    between atoms: _49  and  _51
REMARK   20  A    between atoms: _51  and  _52
REMARK   21  A    between atoms: _51  and  _54
REMARK   22  A    between atoms: _54  and  _55
REMARK   23  A    between atoms: _55  and  _56
REMARK   24  A    between atoms: _58  and  _60
REMARK   25  A    between atoms: _60  and  _61
REMARK   26  A    between atoms: _60  and  _63
REMARK   27  A    between atoms: _63  and  _64
REMARK   28  A    between atoms: _64  and  _65
REMARK   29  A    between atoms: _67  and  _69
REMARK   30  A    between atoms: _69  and  _70
REMARK   31  A    between atoms: _69  and  _72
REMARK   32  A    between atoms: _72  and  _73
REMARK   33  A    between atoms: _78  and  _80
REMARK   34  A    between atoms: _80  and  _81
REMARK   35  A    between atoms: _80  and  _83
REMARK   36  A    between atoms: _83  and  _84
REMARK   37  A    between atoms: _84  and  _85
REMARK   38  A    between atoms: _87  and  _89
REMARK   39  A    between atoms: _89  and  _90
REMARK   40  A    between atoms: _89  and  _92
REMARK   41  A    between atoms: _92  and  _93
REMARK   42  A    between atoms: _96  and  _98
REMARK   43  A    between atoms: _98  and  _99
REMARK   44  A    between atoms: _98  and  _101
REMARK   45  A    between atoms: _101  and  _102
REMARK   46  A    between atoms: _104  and  _106
REMARK   47  A    between atoms: _106  and  _107
REMARK   48  A    between atoms: _106  and  _109
REMARK   49  A    between atoms: _109  and  _110
REMARK   50  A    between atoms: _110  and  _111
REMARK   51  A    between atoms: _111  and  _112
REMARK   52  A    between atoms: _112  and  _113
REMARK   53  A    between atoms: _117  and  _119
REMARK   54  A    between atoms: _119  and  _120
REMARK   55  A    between atoms: _119  and  _122
REMARK   56  A    between atoms: _122  and  _123
REMARK   57  A    between atoms: _126  and  _128
REMARK   58  A    between atoms: _128  and  _129
REMARK   59  A    between atoms: _128  and  _131
REMARK   60  A    between atoms: _131  and  _132
REMARK   61  A    between atoms: _132  and  _133
REMARK   62  A    between atoms: _136  and  _138
REMARK   63  A    between atoms: _138  and  _139
REMARK   64  A    between atoms: _142  and  _144
REMARK   65  A    between atoms: _144  and  _145
REMARK   66  A    between atoms: _144  and  _147
REMARK   67  A    between atoms: _150  and  _152
REMARK   68  A    between atoms: _152  and  _153
REMARK   69  A    between atoms: _152  and  _155
REMARK   70  A    between atoms: _155  and  _156
REMARK   71  A    between atoms: _158  and  _160
REMARK   72  A    between atoms: _160  and  _161
REMARK   73  A    between atoms: _163  and  _165
REMARK   74  A    between atoms: _165  and  _166
REMARK   75  A    between atoms: _165  and  _168
REMARK   76  A    between atoms: _168  and  _169
REMARK   77  A    between atoms: _174  and  _176
REMARK   78  A    between atoms: _176  and  _177
REMARK   79  A    between atoms: _176  and  _179
REMARK   80  A    between atoms: _179  and  _180
REMARK   81  A    between atoms: _185  and  _186
REMARK   82  A    between atoms: _188  and  _190
REMARK   83  A    between atoms: _190  and  _191
REMARK   84  A    between atoms: _190  and  _193
REMARK   85  A    between atoms: _195  and  _197
REMARK   86  A    between atoms: _197  and  _198
REMARK   87  A    between atoms: _197  and  _200
REMARK   88  A    between atoms: _200  and  _201
REMARK   89  A    between atoms: _204  and  _206
REMARK   90  A    between atoms: _206  and  _207
REMARK   91  A    between atoms: _206  and  _209
REMARK   92  A    between atoms: _209  and  _210
REMARK   93  A    between atoms: _213  and  _215
REMARK   94  A    between atoms: _215  and  _216
REMARK   95  A    between atoms: _215  and  _218
REMARK   96  A    between atoms: _218  and  _219
REMARK   97  A    between atoms: _219  and  _220
REMARK   98  A    between atoms: _220  and  _221
REMARK   99  A    between atoms: _221  and  _222
REMARK  100  A    between atoms: _226  and  _228
REMARK  101  A    between atoms: _228  and  _229
REMARK  102  A    between atoms: _228  and  _231
REMARK  103  A    between atoms: _231  and  _232
REMARK  104  A    between atoms: _232  and  _233
REMARK  105  A    between atoms: _233  and  _234
REMARK  106  A    between atoms: _234  and  _235
REMARK  107  A    between atoms: _239  and  _241
REMARK  108  A    between atoms: _241  and  _242
REMARK  109  A    between atoms: _241  and  _244
REMARK  110  A    between atoms: _244  and  _245
REMARK  111  A    between atoms: _245  and  _246
REMARK  112  A    between atoms: _246  and  _247
REMARK  113  A    between atoms: _256  and  _258
REMARK  114  A    between atoms: _258  and  _259
REMARK  115  A    between atoms: _258  and  _261
REMARK  116  A    between atoms: _261  and  _262
REMARK  117  A    between atoms: _265  and  _267
REMARK  118  A    between atoms: _267  and  _268
REMARK  119  A    between atoms: _271  and  _273
REMARK  120  A    between atoms: _273  and  _274
REMARK  121  A    between atoms: _273  and  _276
REMARK  122  A    between atoms: _276  and  _277
REMARK  123  A    between atoms: _277  and  _278
REMARK  124  A    between atoms: _283  and  _285
REMARK  125  A    between atoms: _285  and  _286
REMARK  126  A    between atoms: _285  and  _288
REMARK  127  A    between atoms: _288  and  _289
REMARK  128  A    between atoms: _289  and  _290
REMARK  129  A    between atoms: _293  and  _295
REMARK  130  A    between atoms: _295  and  _296
REMARK  131  A    between atoms: _298  and  _300
REMARK  132  A    between atoms: _300  and  _301
REMARK  133  A    between atoms: _300  and  _303
REMARK  134  A    between atoms: _305  and  _307
REMARK  135  A    between atoms: _307  and  _308
REMARK  136  A    between atoms: _307  and  _310
REMARK  137  A    between atoms: _310  and  _311
REMARK  138  A    between atoms: _314  and  _316
REMARK  139  A    between atoms: _316  and  _317
REMARK  140  A    between atoms: _316  and  _319
REMARK  141  A    between atoms: _322  and  _324
REMARK  142  A    between atoms: _324  and  _325
REMARK  143  A    between atoms: _328  and  _330
REMARK  144  A    between atoms: _330  and  _331
REMARK  145  A    between atoms: _330  and  _333
REMARK  146  A    between atoms: _333  and  _334
REMARK  147  A    between atoms: _336  and  _338
REMARK  148  A    between atoms: _338  and  _339
REMARK  149  A    between atoms: _338  and  _341
REMARK  150  A    between atoms: _341  and  _342
REMARK  151  A    between atoms: _345  and  _347
REMARK  152  A    between atoms: _347  and  _348
REMARK  153  A    between atoms: _347  and  _350
REMARK  154  A    between atoms: _350  and  _351
REMARK  155  A    between atoms: _356  and  _358
REMARK  156  A    between atoms: _358  and  _359
REMARK  157  A    between atoms: _358  and  _361
REMARK  158  A    between atoms: _361  and  _362
REMARK  159  A    between atoms: _362  and  _363
REMARK  160  A    between atoms: _363  and  _364
REMARK  161  A    between atoms: _373  and  _375
REMARK  162  A    between atoms: _375  and  _376
REMARK  163  A    between atoms: _378  and  _380
REMARK  164  A    between atoms: _380  and  _381
REMARK  165  A    between atoms: _380  and  _383
REMARK  166  A    between atoms: _386  and  _388
REMARK  167  A    between atoms: _388  and  _389
REMARK  168  A    between atoms: _388  and  _391
REMARK  169  A    between atoms: _391  and  _392
REMARK  170  A    between atoms: _395  and  _397
REMARK  171  A    between atoms: _397  and  _398
REMARK  172  A    between atoms: _397  and  _400
REMARK  173  A    between atoms: _400  and  _401
REMARK  174  A    between atoms: _401  and  _402
REMARK  175  A    between atoms: _402  and  _403
REMARK  176  A    between atoms: _403  and  _404
REMARK  177  A    between atoms: _408  and  _410
REMARK  178  A    between atoms: _410  and  _411
REMARK  179  A    between atoms: _410  and  _413
REMARK  180  A    between atoms: _413  and  _414
REMARK  181  A    between atoms: _414  and  _415
REMARK  182  A    between atoms: _415  and  _416
REMARK  183  A    between atoms: _416  and  _417
REMARK  184  A    between atoms: _421  and  _423
REMARK  185  A    between atoms: _423  and  _424
REMARK  186  A    between atoms: _423  and  _426
REMARK  187  A    between atoms: _426  and  _427
REMARK  188  A    between atoms: _432  and  _434
REMARK  189  A    between atoms: _434  and  _435
REMARK  190  A    between atoms: _434  and  _437
REMARK  191  A    between atoms: _437  and  _438
REMARK  192  A    between atoms: _443  and  _445
REMARK  193  A    between atoms: _445  and  _446
REMARK  194  A    between atoms: _449  and  _451
REMARK  195  A    between atoms: _451  and  _452
REMARK  196  A    between atoms: _451  and  _454
REMARK  197  A    between atoms: _454  and  _455
REMARK  198  A    between atoms: _460  and  _462
REMARK  199  A    between atoms: _462  and  _463
REMARK  200  A    between atoms: _466  and  _468
REMARK  201  A    between atoms: _468  and  _469
REMARK  202  A    between atoms: _472  and  _474
REMARK  203  A    between atoms: _474  and  _475
REMARK  204  A    between atoms: _474  and  _477
REMARK  205  A    between atoms: _477  and  _478
REMARK  206  A    between atoms: _483  and  _485
REMARK  207  A    between atoms: _485  and  _486
REMARK  208  A    between atoms: _485  and  _488
REMARK  209  A    between atoms: _488  and  _489
REMARK  210  A    between atoms: _492  and  _494
REMARK  211  A    between atoms: _494  and  _495
REMARK  212  A    between atoms: _497  and  _499
REMARK  213  A    between atoms: _499  and  _500
REMARK  214  A    between atoms: _499  and  _502
REMARK  215  A    between atoms: _502  and  _503
REMARK  216  A    between atoms: _503  and  _504
REMARK  217  A    between atoms: _507  and  _509
REMARK  218  A    between atoms: _509  and  _510
REMARK  219  A    between atoms: _509  and  _512
REMARK  220  A    between atoms: _512  and  _513
REMARK  221  A    between atoms: _516  and  _518
REMARK  222  A    between atoms: _518  and  _519
REMARK  223  A    between atoms: _518  and  _521
REMARK  224  A    between atoms: _521  and  _522
REMARK  225  A    between atoms: _524  and  _526
REMARK  226  A    between atoms: _526  and  _527
REMARK  227  A    between atoms: _526  and  _529
REMARK  228  A    between atoms: _529  and  _530
REMARK  229  A    between atoms: _533  and  _535
REMARK  230  A    between atoms: _535  and  _536
REMARK  231  A    between atoms: _535  and  _538
REMARK  232  A    between atoms: _538  and  _539
REMARK  233  A    between atoms: _539  and  _540
REMARK  234  A    between atoms: _542  and  _544
REMARK  235  A    between atoms: _544  and  _545
REMARK  236  A    between atoms: _548  and  _550
REMARK  237  A    between atoms: _550  and  _551
REMARK  238  A    between atoms: _554  and  _556
REMARK  239  A    between atoms: _556  and  _557
REMARK  240  A    between atoms: _556  and  _559
REMARK  241  A    between atoms: _559  and  _560
REMARK  242  A    between atoms: _563  and  _565
REMARK  243  A    between atoms: _565  and  _566
REMARK  244  A    between atoms: _569  and  _571
REMARK  245  A    between atoms: _571  and  _572
REMARK                            x       y       z     vdW  Elec       q    Type
REMARK                         _______ _______ _______ _____ _____    ______ ____
ROOT
ATOM      1  C   HIS A   3      81.862   8.892   4.172  0.00  0.00    +0.241 C 
ATOM      2  N   ALA A   4      81.915   9.253   5.452  0.00  0.00    -0.297 N 
ATOM      3  H   ALA A   4      81.030   9.329   5.993  0.00  0.00    +0.150 HD
ATOM      4  O   HIS A   3      82.854   8.866   3.447  0.00  0.00    -0.273 OA
ENDROOT
BRANCH   2   5
ATOM      5  CA  ALA A   4      83.183   9.546   6.120  0.00  0.00    +0.149 C 
ATOM      6  CB  ALA A   4      82.955   9.799   7.604  0.00  0.00    +0.031 C 
BRANCH   5   7
ATOM      7  C   ALA A   4      84.199   8.418   5.928  0.00  0.00    +0.241 C 
ATOM      8  N   ALA A   5      83.723   7.174   5.925  0.00  0.00    -0.297 N 
ATOM      9  H   ALA A   5      82.699   7.030   6.032  0.00  0.00    +0.150 HD
ATOM     10  O   ALA A   4      85.386   8.678   5.771  0.00  0.00    -0.273 OA
BRANCH   8  11
ATOM     11  CA  ALA A   5      84.588   6.003   5.777  0.00  0.00    +0.149 C 
ATOM     12  CB  ALA A   5      83.777   4.725   5.934  0.00  0.00    +0.031 C 
BRANCH  11  13
ATOM     13  C   ALA A   5      85.349   5.981   4.453  0.00  0.00    +0.241 C 
ATOM     14  O   ALA A   5      86.467   5.482   4.397  0.00  0.00    -0.273 OA
ATOM     15  N   ASN A   6      84.738   6.497   3.390  0.00  0.00    -0.297 N 
ATOM     16  H   ASN A   6      83.758   6.832   3.480  0.00  0.00    +0.150 HD
BRANCH  15  17
ATOM     17  CA  ASN A   6      85.415   6.604   2.096  0.00  0.00    +0.158 C 
BRANCH  17  18
ATOM     18  C   ASN A   6      86.667   7.473   2.161  0.00  0.00    +0.241 C 
ATOM     19  N   ILE A   7      86.548   8.633   2.801  0.00  0.00    -0.298 N 
ATOM     20  H   ILE A   7      85.638   8.873   3.244  0.00  0.00    +0.150 HD
ATOM     21  O   ASN A   6      87.714   7.096   1.638  0.00  0.00    -0.273 OA
BRANCH  19  22
ATOM     22  CA  ILE A   7      87.657   9.582   2.902  0.00  0.00    +0.137 C 
BRANCH  22  23
ATOM     23  CB  ILE A   7      87.140  10.998   3.295  0.00  0.00    +0.026 C 
ATOM     24  CG2 ILE A   7      88.262  11.849   3.888  0.00  0.00    +0.002 C 
BRANCH  23  25
ATOM     25  CG1 ILE A   7      86.550  11.718   2.076  0.00  0.00    +0.002 C 
ATOM     26  CD1 ILE A   7      85.245  11.142   1.576  0.00  0.00    +0.000 C 
ENDBRANCH  23  25
ENDBRANCH  22  23
BRANCH  22  27
ATOM     27  C   ILE A   7      88.719   9.087   3.887  0.00  0.00    +0.227 C 
ATOM     28  O   ILE A   7      89.910   9.151   3.594  0.00  0.00    -0.286 OA
ENDBRANCH  22  27
ENDBRANCH  19  22
ENDBRANCH  17  18
BRANCH  17  29
ATOM     29  CB  ASN A   6      84.471   7.169   1.024  0.00  0.00    +0.114 C 
BRANCH  29  30
ATOM     30  CG  ASN A   6      83.687   6.092   0.301  0.00  0.00    +0.222 C 
ATOM     31  OD1 ASN A   6      84.085   4.929   0.268  0.00  0.00    -0.275 OA
ATOM     32  ND2 ASN A   6      82.565   6.482  -0.294  0.00  0.00    -0.329 N 
ATOM     33 HD21 ASN A   6      82.266   7.477  -0.240  0.00  0.00    +0.145 HD
ATOM     34 HD22 ASN A   6      81.985   5.793  -0.814  0.00  0.00    +0.145 HD
ENDBRANCH  29  30
ENDBRANCH  17  29
ENDBRANCH  15  17
ENDBRANCH  11  13
ENDBRANCH   8  11
ENDBRANCH   5   7
ENDBRANCH   2   5
BRANCH   1  35
ATOM     35  CA  HIS A   3      80.488   8.477   3.635  0.00  0.00    +0.155 C 
BRANCH  35  37
ATOM     36  C   ALA A   2      78.133   8.987   4.041  0.00  0.00    +0.241 C 
ATOM     37  N   HIS A   3      79.404   9.387   4.019  0.00  0.00    -0.297 N 
ATOM     38  H   HIS A   3      79.632  10.367   4.280  0.00  0.00    +0.150 HD
ATOM     39  O   ALA A   2      77.794   7.836   3.775  0.00  0.00    -0.273 OA
BRANCH  36  40
ATOM     40  CA  ALA A   2      77.079  10.028   4.413  0.00  0.00    +0.149 C 
ATOM     41  CB  ALA A   2      77.055  11.151   3.389  0.00  0.00    +0.031 C 
BRANCH  40  44
ATOM     42  C   ASN A   1      76.865   9.955   6.844  0.00  0.00    +0.239 C 
ATOM     43  O   ASN A   1      76.286   8.870   6.822  0.00  0.00    -0.274 OA
ATOM     44  N   ALA A   2      77.300  10.568   5.749  0.00  0.00    -0.297 N 
ATOM     45  H   ALA A   2      77.817  11.465   5.848  0.00  0.00    +0.150 HD
BRANCH  42  46
ATOM     46  CA  ASN A   1      77.127  10.677   8.165  0.00  0.00    +0.154 C 
BRANCH  46  47
ATOM     47  N   ASN A   1      76.436  10.017   9.267  0.00  0.00    -0.238 NA
ATOM     48  H   ASN A   1      76.235   9.000   9.189  0.00  0.00    +0.142 HD
ENDBRANCH  46  47
BRANCH  46  49
ATOM     49  CB  ASN A   1      78.633  10.733   8.445  0.00  0.00    +0.111 C 
BRANCH  49  50
ATOM     50  CG  ASN A   1      79.263   9.353   8.547  0.00  0.00    +0.221 C 
ATOM     51  ND2 ASN A   1      79.285   8.798   9.753  0.00  0.00    -0.329 N 
ATOM     52 HD21 ASN A   1      78.891   9.310  10.568  0.00  0.00    +0.145 HD
ATOM     53 HD22 ASN A   1      79.696   7.852   9.882  0.00  0.00    +0.145 HD
ATOM     54  OD1 ASN A   1      79.715   8.792   7.551  0.00  0.00    -0.275 OA
ENDBRANCH  49  50
ENDBRANCH  46  49
ENDBRANCH  42  46
ENDBRANCH  40  44
ENDBRANCH  36  40
ENDBRANCH  35  37
BRANCH  35  55
ATOM     55  CB  HIS A   3      80.528   8.299   2.107  0.00  0.00    +0.076 C 
BRANCH  55  56
ATOM     56  CG  HIS A   3      81.066   9.482   1.359  0.00  0.00    +0.082 A 
ATOM     57  CD2 HIS A   3      80.985  10.812   1.603  0.00  0.00    +0.115 A 
ATOM     58  NE2 HIS A   3      81.655  11.453   0.588  0.00  0.00    -0.221 NA
ATOM     59  CE1 HIS A   3      82.128  10.548  -0.251  0.00  0.00    +0.199 A 
ATOM     60  ND1 HIS A   3      81.785   9.352   0.190  0.00  0.00    -0.227 NA
ENDBRANCH  55  56
ENDBRANCH  35  55
ENDBRANCH   1  35
TORSDOF 22
REMARK  Name = ../refined-set-2016/3ccz/3ccz_pocket.pdb
REMARK  245 active torsions:
REMARK  status: ('A' for Active; 'I' for Inactive)
REMARK    1  A    between atoms: _1  and  _3
REMARK    2  A    between atoms: _3  and  _4
REMARK    3  A    between atoms: _3  and  _6
REMARK    4  A    between atoms: _6  and  _7
REMARK    5  A    between atoms: _7  and  _8
REMARK    6  A    between atoms: _11  and  _13
REMARK    7  A    between atoms: _13  and  _14
REMARK    8  A    between atoms: _13  and  _16
REMARK    9  A    between atoms: _16  and  _17
REMARK   10  A    between atoms: _20  and  _22
REMARK   11  A    between atoms: _22  and  _23
REMARK   12  A    between atoms: _22  and  _25
REMARK   13  A    between atoms: _25  and  _26
REMARK   14  A    between atoms: _26  and  _27
REMARK   15  A    between atoms: _27  and  _28
REMARK   16  A    between atoms: _37  and  _39
REMARK   17  A    between atoms: _39  and  _40
REMARK   18  A    between atoms: _43  and  _44
REMARK   19  A    between atoms: _49  and  _51
REMARK   20  A    between atoms: _51  and  _52
REMARK   21  A    between atoms: _51  and  _54
REMARK   22  A    between atoms: _54  and  _55
REMARK   23  A    between atoms: _55  and  _56
REMARK   24  A    between atoms: _58  and  _60
REMARK   25  A    between atoms: _60  and  _61
REMARK   26  A    between atoms: _60  and  _63
REMARK   27  A    between atoms: _63  and  _64
REMARK   28  A    between atoms: _64  and  _65
REMARK   29  A    between atoms: _67  and  _69
REMARK   30  A    between atoms: _69  and  _70
REMARK   31  A    between atoms: _69  and  _72
REMARK   32  A    between atoms: _72  and  _73
REMARK   33  A    between atoms: _78  and  _80
REMARK   34  A    between atoms: _80  and  _81
REMARK   35  A    between atoms: _80  and  _83
REMARK   36  A    between atoms: _83  and  _84
REMARK   37  A    between atoms: _84  and  _85
REMARK   38  A    between atoms: _87  and  _89
REMARK   39  A    between atoms: _89  and  _90
REMARK   40  A    between atoms: _89  and  _92
REMARK   41  A    between atoms: _92  and  _93
REMARK   42  A    between atoms: _96  and  _98
REMARK   43  A    between atoms: _98  and  _99
REMARK   44  A    between atoms: _98  and  _101
REMARK   45  A    between atoms: _101  and  _102
REMARK   46  A    between atoms: _104  and  _106
REMARK   47  A    between atoms: _106  and  _107
REMARK   48  A    between atoms: _106  and  _109
REMARK   49  A    between atoms: _109  and  _110
REMARK   50  A    between atoms: _110  and  _111
REMARK   51  A    between atoms: _111  and  _112
REMARK   52  A    between atoms: _112  and  _113
REMARK   53  A    between atoms: _117  and  _119
REMARK   54  A    between atoms: _119  and  _120
REMARK   55  A    between atoms: _119  and  _122
REMARK   56  A    between atoms: _122  and  _123
REMARK   57  A    between atoms: _126  and  _128
REMARK   58  A    between atoms: _128  and  _129
REMARK   59  A    between atoms: _128  and  _131
REMARK   60  A    between atoms: _131  and  _132
REMARK   61  A    between atoms: _132  and  _133
REMARK   62  A    between atoms: _136  and  _138
REMARK   63  A    between atoms: _138  and  _139
REMARK   64  A    between atoms: _142  and  _144
REMARK   65  A    between atoms: _144  and  _145
REMARK   66  A    between atoms: _144  and  _147
REMARK   67  A    between atoms: _150  and  _152
REMARK   68  A    between atoms: _152  and  _153
REMARK   69  A    between atoms: _152  and  _155
REMARK   70  A    between atoms: _155  and  _156
REMARK   71  A    between atoms: _158  and  _160
REMARK   72  A    between atoms: _160  and  _161
REMARK   73  A    between atoms: _163  and  _165
REMARK   74  A    between atoms: _165  and  _166
REMARK   75  A    between atoms: _165  and  _168
REMARK   76  A    between atoms: _168  and  _169
REMARK   77  A    between atoms: _174  and  _176
REMARK   78  A    between atoms: _176  and  _177
REMARK   79  A    between atoms: _176  and  _179
REMARK   80  A    between atoms: _179  and  _180
REMARK   81  A    between atoms: _185  and  _186
REMARK   82  A    between atoms: _188  and  _190
REMARK   83  A    between atoms: _190  and  _191
REMARK   84  A    between atoms: _190  and  _193
REMARK   85  A    between atoms: _195  and  _197
REMARK   86  A    between atoms: _197  and  _198
REMARK   87  A    between atoms: _197  and  _200
REMARK   88  A    between atoms: _200  and  _201
REMARK   89  A    between atoms: _204  and  _206
REMARK   90  A    between atoms: _206  and  _207
REMARK   91  A    between atoms: _206  and  _209
REMARK   92  A    between atoms: _209  and  _210
REMARK   93  A    between atoms: _213  and  _215
REMARK   94  A    between atoms: _215  and  _216
REMARK   95  A    between atoms: _215  and  _218
REMARK   96  A    between atoms: _218  and  _219
REMARK   97  A    between atoms: _219  and  _220
REMARK   98  A    between atoms: _220  and  _221
REMARK   99  A    between atoms: _221  and  _222
REMARK  100  A    between atoms: _226  and  _228
REMARK  101  A    between atoms: _228  and  _229
REMARK  102  A    between atoms: _228  and  _231
REMARK  103  A    between atoms: _231  and  _232
REMARK  104  A    between atoms: _232  and  _233
REMARK  105  A    between atoms: _233  and  _234
REMARK  106  A    between atoms: _234  and  _235
REMARK  107  A    between atoms: _239  and  _241
REMARK  108  A    between atoms: _241  and  _242
REMARK  109  A    between atoms: _241  and  _244
REMARK  110  A    between atoms: _244  and  _245
REMARK  111  A    between atoms: _245  and  _246
REMARK  112  A    between atoms: _246  and  _247
REMARK  113  A    between atoms: _256  and  _258
REMARK  114  A    between atoms: _258  and  _259
REMARK  115  A    between atoms: _258  and  _261
REMARK  116  A    between atoms: _261  and  _262
REMARK  117  A    between atoms: _265  and  _267
REMARK  118  A    between atoms: _267  and  _268
REMARK  119  A    between atoms: _271  and  _273
REMARK  120  A    between atoms: _273  and  _274
REMARK  121  A    between atoms: _273  and  _276
REMARK  122  A    between atoms: _276  and  _277
REMARK  123  A    between atoms: _277  and  _278
REMARK  124  A    between atoms: _283  and  _285
REMARK  125  A    between atoms: _285  and  _286
REMARK  126  A    between atoms: _285  and  _288
REMARK  127  A    between atoms: _288  and  _289
REMARK  128  A    between atoms: _289  and  _290
REMARK  129  A    between atoms: _293  and  _295
REMARK  130  A    between atoms: _295  and  _296
REMARK  131  A    between atoms: _298  and  _300
REMARK  132  A    between atoms: _300  and  _301
REMARK  133  A    between atoms: _300  and  _303
REMARK  134  A    between atoms: _305  and  _307
REMARK  135  A    between atoms: _307  and  _308
REMARK  136  A    between atoms: _307  and  _310
REMARK  137  A    between atoms: _310  and  _311
REMARK  138  A    between atoms: _314  and  _316
REMARK  139  A    between atoms: _316  and  _317
REMARK  140  A    between atoms: _316  and  _319
REMARK  141  A    between atoms: _322  and  _324
REMARK  142  A    between atoms: _324  and  _325
REMARK  143  A    between atoms: _328  and  _330
REMARK  144  A    between atoms: _330  and  _331
REMARK  145  A    between atoms: _330  and  _333
REMARK  146  A    between atoms: _333  and  _334
REMARK  147  A    between atoms: _336  and  _338
REMARK  148  A    between atoms: _338  and  _339
REMARK  149  A    between atoms: _338  and  _341
REMARK  150  A    between atoms: _341  and  _342
REMARK  151  A    between atoms: _345  and  _347
REMARK  152  A    between atoms: _347  and  _348
REMARK  153  A    between atoms: _347  and  _350
REMARK  154  A    between atoms: _350  and  _351
REMARK  155  A    between atoms: _356  and  _358
REMARK  156  A    between atoms: _358  and  _359
REMARK  157  A    between atoms: _358  and  _361
REMARK  158  A    between atoms: _361  and  _362
REMARK  159  A    between atoms: _362  and  _363
REMARK  160  A    between atoms: _363  and  _364
REMARK  161  A    between atoms: _373  and  _375
REMARK  162  A    between atoms: _375  and  _376
REMARK  163  A    between atoms: _378  and  _380
REMARK  164  A    between atoms: _380  and  _381
REMARK  165  A    between atoms: _380  and  _383
REMARK  166  A    between atoms: _386  and  _388
REMARK  167  A    between atoms: _388  and  _389
REMARK  168  A    between atoms: _388  and  _391
REMARK  169  A    between atoms: _391  and  _392
REMARK  170  A    between atoms: _395  and  _397
REMARK  171  A    between atoms: _397  and  _398
REMARK  172  A    between atoms: _397  and  _400
REMARK  173  A    between atoms: _400  and  _401
REMARK  174  A    between atoms: _401  and  _402
REMARK  175  A    between atoms: _402  and  _403
REMARK  176  A    between atoms: _403  and  _404
REMARK  177  A    between atoms: _408  and  _410
REMARK  178  A    between atoms: _410  and  _411
REMARK  179  A    between atoms: _410  and  _413
REMARK  180  A    between atoms: _413  and  _414
REMARK  181  A    between atoms: _414  and  _415
REMARK  182  A    between atoms: _415  and  _416
REMARK  183  A    between atoms: _416  and  _417
REMARK  184  A    between atoms: _421  and  _423
REMARK  185  A    between atoms: _423  and  _424
REMARK  186  A    between atoms: _423  and  _426
REMARK  187  A    between atoms: _426  and  _427
REMARK  188  A    between atoms: _432  and  _434
REMARK  189  A    between atoms: _434  and  _435
REMARK  190  A    between atoms: _434  and  _437
REMARK  191  A    between atoms: _437  and  _438
REMARK  192  A    between atoms: _443  and  _445
REMARK  193  A    between atoms: _445  and  _446
REMARK  194  A    between atoms: _449  and  _451
REMARK  195  A    between atoms: _451  and  _452
REMARK  196  A    between atoms: _451  and  _454
REMARK  197  A    between atoms: _454  and  _455
REMARK  198  A    between atoms: _460  and  _462
REMARK  199  A    between atoms: _462  and  _463
REMARK  200  A    between atoms: _466  and  _468
REMARK  201  A    between atoms: _468  and  _469
REMARK  202  A    between atoms: _472  and  _474
REMARK  203  A    between atoms: _474  and  _475
REMARK  204  A    between atoms: _474  and  _477
REMARK  205  A    between atoms: _477  and  _478
REMARK  206  A    between atoms: _483  and  _485
REMARK  207  A    between atoms: _485  and  _486
REMARK  208  A    between atoms: _485  and  _488
REMARK  209  A    between atoms: _488  and  _489
REMARK  210  A    between atoms: _492  and  _494
REMARK  211  A    between atoms: _494  and  _495
REMARK  212  A    between atoms: _497  and  _499
REMARK  213  A    between atoms: _499  and  _500
REMARK  214  A    between atoms: _499  and  _502
REMARK  215  A    between atoms: _502  and  _503
REMARK  216  A    between atoms: _503  and  _504
REMARK  217  A    between atoms: _507  and  _509
REMARK  218  A    between atoms: _509  and  _510
REMARK  219  A    between atoms: _509  and  _512
REMARK  220  A    between atoms: _512  and  _513
REMARK  221  A    between atoms: _516  and  _518
REMARK  222  A    between atoms: _518  and  _519
REMARK  223  A    between atoms: _518  and  _521
REMARK  224  A    between atoms: _521  and  _522
REMARK  225  A    between atoms: _524  and  _526
REMARK  226  A    between atoms: _526  and  _527
REMARK  227  A    between atoms: _526  and  _529
REMARK  228  A    between atoms: _529  and  _530
REMARK  229  A    between atoms: _533  and  _535
REMARK  230  A    between atoms: _535  and  _536
REMARK  231  A    between atoms: _535  and  _538
REMARK  232  A    between atoms: _538  and  _539
REMARK  233  A    between atoms: _539  and  _540
REMARK  234  A    between atoms: _542  and  _544
REMARK  235  A    between atoms: _544  and  _545
REMARK  236  A    between atoms: _548  and  _550
REMARK  237  A    between atoms: _550  and  _551
REMARK  238  A    between atoms: _554  and  _556
REMARK  239  A    between atoms: _556  and  _557
REMARK  240  A    between atoms: _556  and  _559
REMARK  241  A    between atoms: _559  and  _560
REMARK  242  A    between atoms: _563  and  _565
REMARK  243  A    between atoms: _565  and  _566
REMARK  244  A    between atoms: _569  and  _571
REMARK  245  A    between atoms: _571  and  _572
REMARK                            x       y       z     vdW  Elec       q    Type
REMARK                         _______ _______ _______ _____ _____    ______ ____
ROOT
ATOM      1  CA  LEU A   5      78.000  13.502  -1.831  0.00  0.00    +0.149 C 
ENDROOT
BRANCH   1   2
ATOM      2  C   LEU A   5      76.569  13.887  -1.469  0.00  0.00    +0.241 C 
ATOM      3  N   MET A   6      76.411  14.676  -0.411  0.00  0.00    -0.297 N 
ATOM      4  H   MET A   6      77.250  14.984   0.121  0.00  0.00    +0.150 HD
ATOM      5  O   LEU A   5      75.628  13.468  -2.135  0.00  0.00    -0.273 OA
BRANCH   3   6
ATOM      6  CA  MET A   6      75.090  15.122   0.024  0.00  0.00    +0.149 C 
BRANCH   6   7
ATOM      7  C   MET A   6      74.440  16.022  -1.023  0.00  0.00    +0.241 C 
ATOM      8  O   MET A   6      73.224  16.000  -1.189  0.00  0.00    -0.273 OA
ATOM      9  N   ALA A   7      75.257  16.802  -1.726  0.00  0.00    -0.297 N 
ATOM     10  H   ALA A   7      76.271  16.809  -1.493  0.00  0.00    +0.150 HD
BRANCH   9  11
ATOM     11  CA  ALA A   7      74.775  17.649  -2.815  0.00  0.00    +0.149 C 
ATOM     12  CB  ALA A   7      75.861  18.611  -3.251  0.00  0.00    +0.031 C 
BRANCH  11  13
ATOM     13  C   ALA A   7      74.302  16.813  -4.001  0.00  0.00    +0.241 C 
ATOM     14  N   ALA A   8      75.005  15.718  -4.273  0.00  0.00    -0.297 N 
ATOM     15  H   ALA A   8      75.837  15.497  -3.689  0.00  0.00    +0.150 HD
ATOM     16  O   ALA A   7      73.319  17.156  -4.650  0.00  0.00    -0.273 OA
BRANCH  14  17
ATOM     17  CA  ALA A   8      74.648  14.815  -5.364  0.00  0.00    +0.149 C 
ATOM     18  CB  ALA A   8      75.768  13.817  -5.608  0.00  0.00    +0.031 C 
BRANCH  17  19
ATOM     19  C   ALA A   8      73.339  14.081  -5.078  0.00  0.00    +0.241 C 
ATOM     20  N   LEU A   9      73.102  13.759  -3.808  0.00  0.00    -0.298 N 
ATOM     21  H   LEU A   9      73.798  14.028  -3.083  0.00  0.00    +0.150 HD
ATOM     22  O   ALA A   8      72.560  13.819  -5.991  0.00  0.00    -0.273 OA
BRANCH  20  23
ATOM     23  CA  LEU A   9      71.898  13.041  -3.398  0.00  0.00    +0.137 C 
BRANCH  23  24
ATOM     24  C   LEU A   9      70.681  13.965  -3.381  0.00  0.00    +0.227 C 
ATOM     25  O   LEU A   9      69.575  13.548  -3.725  0.00  0.00    -0.286 OA
ENDBRANCH  23  24
BRANCH  23  26
ATOM     26  CB  LEU A   9      72.093  12.410  -2.015  0.00  0.00    +0.028 C 
BRANCH  26  27
ATOM     27  CG  LEU A   9      73.128  11.282  -1.940  0.00  0.00    +0.002 C 
ATOM     28  CD2 LEU A   9      73.517  11.005  -0.493  0.00  0.00    +0.000 C 
ATOM     29  CD1 LEU A   9      72.612  10.014  -2.610  0.00  0.00    +0.000 C 
ENDBRANCH  26  27
ENDBRANCH  23  26
ENDBRANCH  20  23
ENDBRANCH  17  19
ENDBRANCH  14  17
ENDBRANCH  11  13
ENDBRANCH   9  11
ENDBRANCH   6   7
BRANCH   6  30
ATOM     30  CB  MET A   6      75.174  15.854   1.366  0.00  0.00    +0.041 C 
BRANCH  30  31
ATOM     31  CG  MET A   6      75.596  14.962   2.530  0.00  0.00    +0.060 C 
BRANCH  31  32
ATOM     32  SD  MET A   6      74.364  13.737   2.940  0.00  0.00    -0.139 S 
ATOM     33  CE  MET A   6      73.171  14.745   3.747  0.00  0.00    +0.069 C 
ENDBRANCH  31  32
ENDBRANCH  30  31
ENDBRANCH   6  30
ENDBRANCH   3   6
ENDBRANCH   1   2
BRANCH   1  35
ATOM     34  C   SER A   4      78.804  15.694  -2.526  0.00  0.00    +0.243 C 
ATOM     35  N   LEU A   5      78.907  14.645  -1.714  0.00  0.00    -0.297 N 
ATOM     36  H   LEU A   5      79.646  14.637  -0.982  0.00  0.00    +0.150 HD
ATOM     37  O   SER A   4      77.952  15.767  -3.406  0.00  0.00    -0.273 OA
BRANCH  34  38
ATOM     38  CA  SER A   4      79.812  16.823  -2.340  0.00  0.00    +0.178 C 
BRANCH  38  41
ATOM     39  C   LEU A   3      79.018  17.940  -0.321  0.00  0.00    +0.241 C 
ATOM     40  O   LEU A   3      77.929  18.204  -0.823  0.00  0.00    -0.273 OA
ATOM     41  N   SER A   4      79.954  17.231  -0.946  0.00  0.00    -0.295 N 
ATOM     42  H   SER A   4      80.813  16.959  -0.426  0.00  0.00    +0.150 HD
BRANCH  39  43
ATOM     43  CA  LEU A   3      79.354  18.414   1.088  0.00  0.00    +0.149 C 
BRANCH  43  45
ATOM     44  C   GLU A   2      79.363  16.203   2.119  0.00  0.00    +0.241 C 
ATOM     45  N   LEU A   3      79.979  17.355   1.879  0.00  0.00    -0.297 N 
ATOM     46  H   LEU A   3      80.933  17.508   2.265  0.00  0.00    +0.150 HD
ATOM     47  O   GLU A   2      78.245  15.948   1.696  0.00  0.00    -0.273 OA
BRANCH  44  48
ATOM     48  CA  GLU A   2      80.118  15.185   2.960  0.00  0.00    +0.149 C 
BRANCH  48  50
ATOM     49  C   GLY A   1      81.863  14.651   1.335  0.00  0.00    +0.240 C 
ATOM     50  N   GLU A   2      81.512  15.109   2.536  0.00  0.00    -0.297 N 
ATOM     51  H   GLU A   2      82.256  15.422   3.192  0.00  0.00    +0.150 HD
ATOM     52  O   GLY A   1      81.049  14.255   0.502  0.00  0.00    -0.274 OA
BRANCH  49  53
ATOM     53  CA  GLY A   1      83.347  14.649   1.017  0.00  0.00    +0.169 C 
BRANCH  53  54
ATOM     54  N   GLY A   1      84.041  15.789   1.584  0.00  0.00    -0.236 NA
ATOM     55  H   GLY A   1      84.768  15.625   2.310  0.00  0.00    +0.142 HD
ENDBRANCH  53  54
ENDBRANCH  49  53
ENDBRANCH  48  50
BRANCH  48  56
ATOM     56  CB  GLU A   2      80.010  15.577   4.439  0.00  0.00    +0.041 C 
BRANCH  56  57
ATOM     57  CG  GLU A   2      80.491  14.521   5.420  0.00  0.00    +0.116 C 
BRANCH  57  58
ATOM     58  CD  GLU A   2      79.667  13.256   5.373  0.00  0.00    +0.365 C 
ATOM     59  OE2 GLU A   2      78.619  13.201   6.048  0.00  0.00    -0.246 OA
ATOM     60  OE1 GLU A   2      80.069  12.319   4.656  0.00  0.00    -0.246 OA
ENDBRANCH  57  58
ENDBRANCH  56  57
ENDBRANCH  48  56
ENDBRANCH  44  48
ENDBRANCH  43  45
BRANCH  43  61
ATOM     61  CB  LEU A   3      80.268  19.641   1.004  0.00  0.00    +0.029 C 
BRANCH  61  62
ATOM     62  CG  LEU A   3      80.297  20.556   2.229  0.00  0.00    +0.002 C 
ATOM     63  CD2 LEU A   3      78.982  21.316   2.376  0.00  0.00    +0.000 C 
ATOM     64  CD1 LEU A   3      81.473  21.517   2.142  0.00  0.00    +0.000 C 
ENDBRANCH  61  62
ENDBRANCH  43  61
ENDBRANCH  39  43
ENDBRANCH  38  41
BRANCH  38  65
ATOM     65  CB  SER A   4      81.165  16.408  -2.913  0.00  0.00    +0.166 C 
BRANCH  65  66
ATOM     66  OG  SER A   4      81.115  16.348  -4.328  0.00  0.00    -0.380 OA
ATOM     67  H   SER A   4      80.434  15.685  -4.605  0.00  0.00    +0.211 HD
ENDBRANCH  65  66
ENDBRANCH  38  65
ENDBRANCH  34  38
ENDBRANCH   1  35
BRANCH   1  68
ATOM     68  CB  LEU A   5      78.460  12.327  -0.957  0.00  0.00    +0.029 C 
BRANCH  68  69
ATOM     69  CG  LEU A   5      77.531  11.104  -0.947  0.00  0.00    +0.002 C 
ATOM     70  CD2 LEU A   5      78.106   9.985  -0.092  0.00  0.00    +0.000 C 
ATOM     71  CD1 LEU A   5      77.254  10.601  -2.361  0.00  0.00    +0.000 C 
ENDBRANCH  68  69
ENDBRANCH   1  68
TORSDOF 32
REMARK  Name = ../refined-set-2016/3ccz/3ccz_pocket.pdb
REMARK  245 active torsions:
REMARK  status: ('A' for Active; 'I' for Inactive)
REMARK    1  A    between atoms: _1  and  _3
REMARK    2  A    between atoms: _3  and  _4
REMARK    3  A    between atoms: _3  and  _6
REMARK    4  A    between atoms: _6  and  _7
REMARK    5  A    between atoms: _7  and  _8
REMARK    6  A    between atoms: _11  and  _13
REMARK    7  A    between atoms: _13  and  _14
REMARK    8  A    between atoms: _13  and  _16
REMARK    9  A    between atoms: _16  and  _17
REMARK   10  A    between atoms: _20  and  _22
REMARK   11  A    between atoms: _22  and  _23
REMARK   12  A    between atoms: _22  and  _25
REMARK   13  A    between atoms: _25  and  _26
REMARK   14  A    between atoms: _26  and  _27
REMARK   15  A    between atoms: _27  and  _28
REMARK   16  A    between atoms: _37  and  _39
REMARK   17  A    between atoms: _39  and  _40
REMARK   18  A    between atoms: _43  and  _44
REMARK   19  A    between atoms: _49  and  _51
REMARK   20  A    between atoms: _51  and  _52
REMARK   21  A    between atoms: _51  and  _54
REMARK   22  A    between atoms: _54  and  _55
REMARK   23  A    between atoms: _55  and  _56
REMARK   24  A    between atoms: _58  and  _60
REMARK   25  A    between atoms: _60  and  _61
REMARK   26  A    between atoms: _60  and  _63
REMARK   27  A    between atoms: _63  and  _64
REMARK   28  A    between atoms: _64  and  _65
REMARK   29  A    between atoms: _67  and  _69
REMARK   30  A    between atoms: _69  and  _70
REMARK   31  A    between atoms: _69  and  _72
REMARK   32  A    between atoms: _72  and  _73
REMARK   33  A    between atoms: _78  and  _80
REMARK   34  A    between atoms: _80  and  _81
REMARK   35  A    between atoms: _80  and  _83
REMARK   36  A    between atoms: _83  and  _84
REMARK   37  A    between atoms: _84  and  _85
REMARK   38  A    between atoms: _87  and  _89
REMARK   39  A    between atoms: _89  and  _90
REMARK   40  A    between atoms: _89  and  _92
REMARK   41  A    between atoms: _92  and  _93
REMARK   42  A    between atoms: _96  and  _98
REMARK   43  A    between atoms: _98  and  _99
REMARK   44  A    between atoms: _98  and  _101
REMARK   45  A    between atoms: _101  and  _102
REMARK   46  A    between atoms: _104  and  _106
REMARK   47  A    between atoms: _106  and  _107
REMARK   48  A    between atoms: _106  and  _109
REMARK   49  A    between atoms: _109  and  _110
REMARK   50  A    between atoms: _110  and  _111
REMARK   51  A    between atoms: _111  and  _112
REMARK   52  A    between atoms: _112  and  _113
REMARK   53  A    between atoms: _117  and  _119
REMARK   54  A    between atoms: _119  and  _120
REMARK   55  A    between atoms: _119  and  _122
REMARK   56  A    between atoms: _122  and  _123
REMARK   57  A    between atoms: _126  and  _128
REMARK   58  A    between atoms: _128  and  _129
REMARK   59  A    between atoms: _128  and  _131
REMARK   60  A    between atoms: _131  and  _132
REMARK   61  A    between atoms: _132  and  _133
REMARK   62  A    between atoms: _136  and  _138
REMARK   63  A    between atoms: _138  and  _139
REMARK   64  A    between atoms: _142  and  _144
REMARK   65  A    between atoms: _144  and  _145
REMARK   66  A    between atoms: _144  and  _147
REMARK   67  A    between atoms: _150  and  _152
REMARK   68  A    between atoms: _152  and  _153
REMARK   69  A    between atoms: _152  and  _155
REMARK   70  A    between atoms: _155  and  _156
REMARK   71  A    between atoms: _158  and  _160
REMARK   72  A    between atoms: _160  and  _161
REMARK   73  A    between atoms: _163  and  _165
REMARK   74  A    between atoms: _165  and  _166
REMARK   75  A    between atoms: _165  and  _168
REMARK   76  A    between atoms: _168  and  _169
REMARK   77  A    between atoms: _174  and  _176
REMARK   78  A    between atoms: _176  and  _177
REMARK   79  A    between atoms: _176  and  _179
REMARK   80  A    between atoms: _179  and  _180
REMARK   81  A    between atoms: _185  and  _186
REMARK   82  A    between atoms: _188  and  _190
REMARK   83  A    between atoms: _190  and  _191
REMARK   84  A    between atoms: _190  and  _193
REMARK   85  A    between atoms: _195  and  _197
REMARK   86  A    between atoms: _197  and  _198
REMARK   87  A    between atoms: _197  and  _200
REMARK   88  A    between atoms: _200  and  _201
REMARK   89  A    between atoms: _204  and  _206
REMARK   90  A    between atoms: _206  and  _207
REMARK   91  A    between atoms: _206  and  _209
REMARK   92  A    between atoms: _209  and  _210
REMARK   93  A    between atoms: _213  and  _215
REMARK   94  A    between atoms: _215  and  _216
REMARK   95  A    between atoms: _215  and  _218
REMARK   96  A    between atoms: _218  and  _219
REMARK   97  A    between atoms: _219  and  _220
REMARK   98  A    between atoms: _220  and  _221
REMARK   99  A    between atoms: _221  and  _222
REMARK  100  A    between atoms: _226  and  _228
REMARK  101  A    between atoms: _228  and  _229
REMARK  102  A    between atoms: _228  and  _231
REMARK  103  A    between atoms: _231  and  _232
REMARK  104  A    between atoms: _232  and  _233
REMARK  105  A    between atoms: _233  and  _234
REMARK  106  A    between atoms: _234  and  _235
REMARK  107  A    between atoms: _239  and  _241
REMARK  108  A    between atoms: _241  and  _242
REMARK  109  A    between atoms: _241  and  _244
REMARK  110  A    between atoms: _244  and  _245
REMARK  111  A    between atoms: _245  and  _246
REMARK  112  A    between atoms: _246  and  _247
REMARK  113  A    between atoms: _256  and  _258
REMARK  114  A    between atoms: _258  and  _259
REMARK  115  A    between atoms: _258  and  _261
REMARK  116  A    between atoms: _261  and  _262
REMARK  117  A    between atoms: _265  and  _267
REMARK  118  A    between atoms: _267  and  _268
REMARK  119  A    between atoms: _271  and  _273
REMARK  120  A    between atoms: _273  and  _274
REMARK  121  A    between atoms: _273  and  _276
REMARK  122  A    between atoms: _276  and  _277
REMARK  123  A    between atoms: _277  and  _278
REMARK  124  A    between atoms: _283  and  _285
REMARK  125  A    between atoms: _285  and  _286
REMARK  126  A    between atoms: _285  and  _288
REMARK  127  A    between atoms: _288  and  _289
REMARK  128  A    between atoms: _289  and  _290
REMARK  129  A    between atoms: _293  and  _295
REMARK  130  A    between atoms: _295  and  _296
REMARK  131  A    between atoms: _298  and  _300
REMARK  132  A    between atoms: _300  and  _301
REMARK  133  A    between atoms: _300  and  _303
REMARK  134  A    between atoms: _305  and  _307
REMARK  135  A    between atoms: _307  and  _308
REMARK  136  A    between atoms: _307  and  _310
REMARK  137  A    between atoms: _310  and  _311
REMARK  138  A    between atoms: _314  and  _316
REMARK  139  A    between atoms: _316  and  _317
REMARK  140  A    between atoms: _316  and  _319
REMARK  141  A    between atoms: _322  and  _324
REMARK  142  A    between atoms: _324  and  _325
REMARK  143  A    between atoms: _328  and  _330
REMARK  144  A    between atoms: _330  and  _331
REMARK  145  A    between atoms: _330  and  _333
REMARK  146  A    between atoms: _333  and  _334
REMARK  147  A    between atoms: _336  and  _338
REMARK  148  A    between atoms: _338  and  _339
REMARK  149  A    between atoms: _338  and  _341
REMARK  150  A    between atoms: _341  and  _342
REMARK  151  A    between atoms: _345  and  _347
REMARK  152  A    between atoms: _347  and  _348
REMARK  153  A    between atoms: _347  and  _350
REMARK  154  A    between atoms: _350  and  _351
REMARK  155  A    between atoms: _356  and  _358
REMARK  156  A    between atoms: _358  and  _359
REMARK  157  A    between atoms: _358  and  _361
REMARK  158  A    between atoms: _361  and  _362
REMARK  159  A    between atoms: _362  and  _363
REMARK  160  A    between atoms: _363  and  _364
REMARK  161  A    between atoms: _373  and  _375
REMARK  162  A    between atoms: _375  and  _376
REMARK  163  A    between atoms: _378  and  _380
REMARK  164  A    between atoms: _380  and  _381
REMARK  165  A    between atoms: _380  and  _383
REMARK  166  A    between atoms: _386  and  _388
REMARK  167  A    between atoms: _388  and  _389
REMARK  168  A    between atoms: _388  and  _391
REMARK  169  A    between atoms: _391  and  _392
REMARK  170  A    between atoms: _395  and  _397
REMARK  171  A    between atoms: _397  and  _398
REMARK  172  A    between atoms: _397  and  _400
REMARK  173  A    between atoms: _400  and  _401
REMARK  174  A    between atoms: _401  and  _402
REMARK  175  A    between atoms: _402  and  _403
REMARK  176  A    between atoms: _403  and  _404
REMARK  177  A    between atoms: _408  and  _410
REMARK  178  A    between atoms: _410  and  _411
REMARK  179  A    between atoms: _410  and  _413
REMARK  180  A    between atoms: _413  and  _414
REMARK  181  A    between atoms: _414  and  _415
REMARK  182  A    between atoms: _415  and  _416
REMARK  183  A    between atoms: _416  and  _417
REMARK  184  A    between atoms: _421  and  _423
REMARK  185  A    between atoms: _423  and  _424
REMARK  186  A    between atoms: _423  and  _426
REMARK  187  A    between atoms: _426  and  _427
REMARK  188  A    between atoms: _432  and  _434
REMARK  189  A    between atoms: _434  and  _435
REMARK  190  A    between atoms: _434  and  _437
REMARK  191  A    between atoms: _437  and  _438
REMARK  192  A    between atoms: _443  and  _445
REMARK  193  A    between atoms: _445  and  _446
REMARK  194  A    between atoms: _449  and  _451
REMARK  195  A    between atoms: _451  and  _452
REMARK  196  A    between atoms: _451  and  _454
REMARK  197  A    between atoms: _454  and  _455
REMARK  198  A    between atoms: _460  and  _462
REMARK  199  A    between atoms: _462  and  _463
REMARK  200  A    between atoms: _466  and  _468
REMARK  201  A    between atoms: _468  and  _469
REMARK  202  A    between atoms: _472  and  _474
REMARK  203  A    between atoms: _474  and  _475
REMARK  204  A    between atoms: _474  and  _477
REMARK  205  A    between atoms: _477  and  _478
REMARK  206  A    between atoms: _483  and  _485
REMARK  207  A    between atoms: _485  and  _486
REMARK  208  A    between atoms: _485  and  _488
REMARK  209  A    between atoms: _488  and  _489
REMARK  210  A    between atoms: _492  and  _494
REMARK  211  A    between atoms: _494  and  _495
REMARK  212  A    between atoms: _497  and  _499
REMARK  213  A    between atoms: _499  and  _500
REMARK  214  A    between atoms: _499  and  _502
REMARK  215  A    between atoms: _502  and  _503
REMARK  216  A    between atoms: _503  and  _504
REMARK  217  A    between atoms: _507  and  _509
REMARK  218  A    between atoms: _509  and  _510
REMARK  219  A    between atoms: _509  and  _512
REMARK  220  A    between atoms: _512  and  _513
REMARK  221  A    between atoms: _516  and  _518
REMARK  222  A    between atoms: _518  and  _519
REMARK  223  A    between atoms: _518  and  _521
REMARK  224  A    between atoms: _521  and  _522
REMARK  225  A    between atoms: _524  and  _526
REMARK  226  A    between atoms: _526  and  _527
REMARK  227  A    between atoms: _526  and  _529
REMARK  228  A    between atoms: _529  and  _530
REMARK  229  A    between atoms: _533  and  _535
REMARK  230  A    between atoms: _535  and  _536
REMARK  231  A    between atoms: _535  and  _538
REMARK  232  A    between atoms: _538  and  _539
REMARK  233  A    between atoms: _539  and  _540
REMARK  234  A    between atoms: _542  and  _544
REMARK  235  A    between atoms: _544  and  _545
REMARK  236  A    between atoms: _548  and  _550
REMARK  237  A    between atoms: _550  and  _551
REMARK  238  A    between atoms: _554  and  _556
REMARK  239  A    between atoms: _556  and  _557
REMARK  240  A    between atoms: _556  and  _559
REMARK  241  A    between atoms: _559  and  _560
REMARK  242  A    between atoms: _563  and  _565
REMARK  243  A    between atoms: _565  and  _566
REMARK  244  A    between atoms: _569  and  _571
REMARK  245  A    between atoms: _571  and  _572
REMARK                            x       y       z     vdW  Elec       q    Type
REMARK                         _______ _______ _______ _____ _____    ______ ____
ROOT
ATOM      1  C   ALA A   1      69.246  16.027  -7.392  0.00  0.00    +0.238 C 
ATOM      2  N   GLY A   2      69.649  14.780  -7.151  0.00  0.00    -0.297 N 
ATOM      3  H   GLY A   2      70.399  14.621  -6.448  0.00  0.00    +0.150 HD
ATOM      4  O   ALA A   1      68.357  16.300  -8.201  0.00  0.00    -0.274 OA
ENDROOT
BRANCH   1   5
ATOM      5  CA  ALA A   1      69.946  17.137  -6.608  0.00  0.00    +0.145 C 
ATOM      6  CB  ALA A   1      71.215  17.571  -7.329  0.00  0.00    +0.028 C 
BRANCH   5   7
ATOM      7  N   ALA A   1      70.260  16.726  -5.241  0.00  0.00    -0.238 NA
ATOM      8  H   ALA A   1      71.249  16.518  -4.997  0.00  0.00    +0.142 HD
ENDBRANCH   5   7
ENDBRANCH   1   5
BRANCH   2   9
ATOM      9  CA  GLY A   2      69.076  13.635  -7.838  0.00  0.00    +0.163 C 
BRANCH   9  10
ATOM     10  C   GLY A   2      69.507  13.554  -9.290  0.00  0.00    +0.229 C 
ATOM     11  O   GLY A   2      70.684  13.349  -9.590  0.00  0.00    -0.286 OA
ENDBRANCH   9  10
ENDBRANCH   2   9
TORSDOF 4
REMARK  Name = ../refined-set-2016/3ccz/3ccz_pocket.pdb
REMARK  245 active torsions:
REMARK  status: ('A' for Active; 'I' for Inactive)
REMARK    1  A    between atoms: _1  and  _3
REMARK    2  A    between atoms: _3  and  _4
REMARK    3  A    between atoms: _3  and  _6
REMARK    4  A    between atoms: _6  and  _7
REMARK    5  A    between atoms: _7  and  _8
REMARK    6  A    between atoms: _11  and  _13
REMARK    7  A    between atoms: _13  and  _14
REMARK    8  A    between atoms: _13  and  _16
REMARK    9  A    between atoms: _16  and  _17
REMARK   10  A    between atoms: _20  and  _22
REMARK   11  A    between atoms: _22  and  _23
REMARK   12  A    between atoms: _22  and  _25
REMARK   13  A    between atoms: _25  and  _26
REMARK   14  A    between atoms: _26  and  _27
REMARK   15  A    between atoms: _27  and  _28
REMARK   16  A    between atoms: _37  and  _39
REMARK   17  A    between atoms: _39  and  _40
REMARK   18  A    between atoms: _43  and  _44
REMARK   19  A    between atoms: _49  and  _51
REMARK   20  A    between atoms: _51  and  _52
REMARK   21  A    between atoms: _51  and  _54
REMARK   22  A    between atoms: _54  and  _55
REMARK   23  A    between atoms: _55  and  _56
REMARK   24  A    between atoms: _58  and  _60
REMARK   25  A    between atoms: _60  and  _61
REMARK   26  A    between atoms: _60  and  _63
REMARK   27  A    between atoms: _63  and  _64
REMARK   28  A    between atoms: _64  and  _65
REMARK   29  A    between atoms: _67  and  _69
REMARK   30  A    between atoms: _69  and  _70
REMARK   31  A    between atoms: _69  and  _72
REMARK   32  A    between atoms: _72  and  _73
REMARK   33  A    between atoms: _78  and  _80
REMARK   34  A    between atoms: _80  and  _81
REMARK   35  A    between atoms: _80  and  _83
REMARK   36  A    between atoms: _83  and  _84
REMARK   37  A    between atoms: _84  and  _85
REMARK   38  A    between atoms: _87  and  _89
REMARK   39  A    between atoms: _89  and  _90
REMARK   40  A    between atoms: _89  and  _92
REMARK   41  A    between atoms: _92  and  _93
REMARK   42  A    between atoms: _96  and  _98
REMARK   43  A    between atoms: _98  and  _99
REMARK   44  A    between atoms: _98  and  _101
REMARK   45  A    between atoms: _101  and  _102
REMARK   46  A    between atoms: _104  and  _106
REMARK   47  A    between atoms: _106  and  _107
REMARK   48  A    between atoms: _106  and  _109
REMARK   49  A    between atoms: _109  and  _110
REMARK   50  A    between atoms: _110  and  _111
REMARK   51  A    between atoms: _111  and  _112
REMARK   52  A    between atoms: _112  and  _113
REMARK   53  A    between atoms: _117  and  _119
REMARK   54  A    between atoms: _119  and  _120
REMARK   55  A    between atoms: _119  and  _122
REMARK   56  A    between atoms: _122  and  _123
REMARK   57  A    between atoms: _126  and  _128
REMARK   58  A    between atoms: _128  and  _129
REMARK   59  A    between atoms: _128  and  _131
REMARK   60  A    between atoms: _131  and  _132
REMARK   61  A    between atoms: _132  and  _133
REMARK   62  A    between atoms: _136  and  _138
REMARK   63  A    between atoms: _138  and  _139
REMARK   64  A    between atoms: _142  and  _144
REMARK   65  A    between atoms: _144  and  _145
REMARK   66  A    between atoms: _144  and  _147
REMARK   67  A    between atoms: _150  and  _152
REMARK   68  A    between atoms: _152  and  _153
REMARK   69  A    between atoms: _152  and  _155
REMARK   70  A    between atoms: _155  and  _156
REMARK   71  A    between atoms: _158  and  _160
REMARK   72  A    between atoms: _160  and  _161
REMARK   73  A    between atoms: _163  and  _165
REMARK   74  A    between atoms: _165  and  _166
REMARK   75  A    between atoms: _165  and  _168
REMARK   76  A    between atoms: _168  and  _169
REMARK   77  A    between atoms: _174  and  _176
REMARK   78  A    between atoms: _176  and  _177
REMARK   79  A    between atoms: _176  and  _179
REMARK   80  A    between atoms: _179  and  _180
REMARK   81  A    between atoms: _185  and  _186
REMARK   82  A    between atoms: _188  and  _190
REMARK   83  A    between atoms: _190  and  _191
REMARK   84  A    between atoms: _190  and  _193
REMARK   85  A    between atoms: _195  and  _197
REMARK   86  A    between atoms: _197  and  _198
REMARK   87  A    between atoms: _197  and  _200
REMARK   88  A    between atoms: _200  and  _201
REMARK   89  A    between atoms: _204  and  _206
REMARK   90  A    between atoms: _206  and  _207
REMARK   91  A    between atoms: _206  and  _209
REMARK   92  A    between atoms: _209  and  _210
REMARK   93  A    between atoms: _213  and  _215
REMARK   94  A    between atoms: _215  and  _216
REMARK   95  A    between atoms: _215  and  _218
REMARK   96  A    between atoms: _218  and  _219
REMARK   97  A    between atoms: _219  and  _220
REMARK   98  A    between atoms: _220  and  _221
REMARK   99  A    between atoms: _221  and  _222
REMARK  100  A    between atoms: _226  and  _228
REMARK  101  A    between atoms: _228  and  _229
REMARK  102  A    between atoms: _228  and  _231
REMARK  103  A    between atoms: _231  and  _232
REMARK  104  A    between atoms: _232  and  _233
REMARK  105  A    between atoms: _233  and  _234
REMARK  106  A    between atoms: _234  and  _235
REMARK  107  A    between atoms: _239  and  _241
REMARK  108  A    between atoms: _241  and  _242
REMARK  109  A    between atoms: _241  and  _244
REMARK  110  A    between atoms: _244  and  _245
REMARK  111  A    between atoms: _245  and  _246
REMARK  112  A    between atoms: _246  and  _247
REMARK  113  A    between atoms: _256  and  _258
REMARK  114  A    between atoms: _258  and  _259
REMARK  115  A    between atoms: _258  and  _261
REMARK  116  A    between atoms: _261  and  _262
REMARK  117  A    between atoms: _265  and  _267
REMARK  118  A    between atoms: _267  and  _268
REMARK  119  A    between atoms: _271  and  _273
REMARK  120  A    between atoms: _273  and  _274
REMARK  121  A    between atoms: _273  and  _276
REMARK  122  A    between atoms: _276  and  _277
REMARK  123  A    between atoms: _277  and  _278
REMARK  124  A    between atoms: _283  and  _285
REMARK  125  A    between atoms: _285  and  _286
REMARK  126  A    between atoms: _285  and  _288
REMARK  127  A    between atoms: _288  and  _289
REMARK  128  A    between atoms: _289  and  _290
REMARK  129  A    between atoms: _293  and  _295
REMARK  130  A    between atoms: _295  and  _296
REMARK  131  A    between atoms: _298  and  _300
REMARK  132  A    between atoms: _300  and  _301
REMARK  133  A    between atoms: _300  and  _303
REMARK  134  A    between atoms: _305  and  _307
REMARK  135  A    between atoms: _307  and  _308
REMARK  136  A    between atoms: _307  and  _310
REMARK  137  A    between atoms: _310  and  _311
REMARK  138  A    between atoms: _314  and  _316
REMARK  139  A    between atoms: _316  and  _317
REMARK  140  A    between atoms: _316  and  _319
REMARK  141  A    between atoms: _322  and  _324
REMARK  142  A    between atoms: _324  and  _325
REMARK  143  A    between atoms: _328  and  _330
REMARK  144  A    between atoms: _330  and  _331
REMARK  145  A    between atoms: _330  and  _333
REMARK  146  A    between atoms: _333  and  _334
REMARK  147  A    between atoms: _336  and  _338
REMARK  148  A    between atoms: _338  and  _339
REMARK  149  A    between atoms: _338  and  _341
REMARK  150  A    between atoms: _341  and  _342
REMARK  151  A    between atoms: _345  and  _347
REMARK  152  A    between atoms: _347  and  _348
REMARK  153  A    between atoms: _347  and  _350
REMARK  154  A    between atoms: _350  and  _351
REMARK  155  A    between atoms: _356  and  _358
REMARK  156  A    between atoms: _358  and  _359
REMARK  157  A    between atoms: _358  and  _361
REMARK  158  A    between atoms: _361  and  _362
REMARK  159  A    between atoms: _362  and  _363
REMARK  160  A    between atoms: _363  and  _364
REMARK  161  A    between atoms: _373  and  _375
REMARK  162  A    between atoms: _375  and  _376
REMARK  163  A    between atoms: _378  and  _380
REMARK  164  A    between atoms: _380  and  _381
REMARK  165  A    between atoms: _380  and  _383
REMARK  166  A    between atoms: _386  and  _388
REMARK  167  A    between atoms: _388  and  _389
REMARK  168  A    between atoms: _388  and  _391
REMARK  169  A    between atoms: _391  and  _392
REMARK  170  A    between atoms: _395  and  _397
REMARK  171  A    between atoms: _397  and  _398
REMARK  172  A    between atoms: _397  and  _400
REMARK  173  A    between atoms: _400  and  _401
REMARK  174  A    between atoms: _401  and  _402
REMARK  175  A    between atoms: _402  and  _403
REMARK  176  A    between atoms: _403  and  _404
REMARK  177  A    between atoms: _408  and  _410
REMARK  178  A    between atoms: _410  and  _411
REMARK  179  A    between atoms: _410  and  _413
REMARK  180  A    between atoms: _413  and  _414
REMARK  181  A    between atoms: _414  and  _415
REMARK  182  A    between atoms: _415  and  _416
REMARK  183  A    between atoms: _416  and  _417
REMARK  184  A    between atoms: _421  and  _423
REMARK  185  A    between atoms: _423  and  _424
REMARK  186  A    between atoms: _423  and  _426
REMARK  187  A    between atoms: _426  and  _427
REMARK  188  A    between atoms: _432  and  _434
REMARK  189  A    between atoms: _434  and  _435
REMARK  190  A    between atoms: _434  and  _437
REMARK  191  A    between atoms: _437  and  _438
REMARK  192  A    between atoms: _443  and  _445
REMARK  193  A    between atoms: _445  and  _446
REMARK  194  A    between atoms: _449  and  _451
REMARK  195  A    between atoms: _451  and  _452
REMARK  196  A    between atoms: _451  and  _454
REMARK  197  A    between atoms: _454  and  _455
REMARK  198  A    between atoms: _460  and  _462
REMARK  199  A    between atoms: _462  and  _463
REMARK  200  A    between atoms: _466  and  _468
REMARK  201  A    between atoms: _468  and  _469
REMARK  202  A    between atoms: _472  and  _474
REMARK  203  A    between atoms: _474  and  _475
REMARK  204  A    between atoms: _474  and  _477
REMARK  205  A    between atoms: _477  and  _478
REMARK  206  A    between atoms: _483  and  _485
REMARK  207  A    between atoms: _485  and  _486
REMARK  208  A    between atoms: _485  and  _488
REMARK  209  A    between atoms: _488  and  _489
REMARK  210  A    between atoms: _492  and  _494
REMARK  211  A    between atoms: _494  and  _495
REMARK  212  A    between atoms: _497  and  _499
REMARK  213  A    between atoms: _499  and  _500
REMARK  214  A    between atoms: _499  and  _502
REMARK  215  A    between atoms: _502  and  _503
REMARK  216  A    between atoms: _503  and  _504
REMARK  217  A    between atoms: _507  and  _509
REMARK  218  A    between atoms: _509  and  _510
REMARK  219  A    between atoms: _509  and  _512
REMARK  220  A    between atoms: _512  and  _513
REMARK  221  A    between atoms: _516  and  _518
REMARK  222  A    between atoms: _518  and  _519
REMARK  223  A    between atoms: _518  and  _521
REMARK  224  A    between atoms: _521  and  _522
REMARK  225  A    between atoms: _524  and  _526
REMARK  226  A    between atoms: _526  and  _527
REMARK  227  A    between atoms: _526  and  _529
REMARK  228  A    between atoms: _529  and  _530
REMARK  229  A    between atoms: _533  and  _535
REMARK  230  A    between atoms: _535  and  _536
REMARK  231  A    between atoms: _535  and  _538
REMARK  232  A    between atoms: _538  and  _539
REMARK  233  A    between atoms: _539  and  _540
REMARK  234  A    between atoms: _542  and  _544
REMARK  235  A    between atoms: _544  and  _545
REMARK  236  A    between atoms: _548  and  _550
REMARK  237  A    between atoms: _550  and  _551
REMARK  238  A    between atoms: _554  and  _556
REMARK  239  A    between atoms: _556  and  _557
REMARK  240  A    between atoms: _556  and  _559
REMARK  241  A    between atoms: _559  and  _560
REMARK  242  A    between atoms: _563  and  _565
REMARK  243  A    between atoms: _565  and  _566
REMARK  244  A    between atoms: _569  and  _571
REMARK  245  A    between atoms: _571  and  _572
REMARK                            x       y       z     vdW  Elec       q    Type
REMARK                         _______ _______ _______ _____ _____    ______ ____
ROOT
ATOM      1  O   HOH     1      73.702   4.089   3.509  0.00  0.00    +0.000 OA
ENDROOT
TORSDOF 0
REMARK  Name = ../refined-set-2016/3ccz/3ccz_pocket.pdb
REMARK  245 active torsions:
REMARK  status: ('A' for Active; 'I' for Inactive)
REMARK    1  A    between atoms: _1  and  _3
REMARK    2  A    between atoms: _3  and  _4
REMARK    3  A    between atoms: _3  and  _6
REMARK    4  A    between atoms: _6  and  _7
REMARK    5  A    between atoms: _7  and  _8
REMARK    6  A    between atoms: _11  and  _13
REMARK    7  A    between atoms: _13  and  _14
REMARK    8  A    between atoms: _13  and  _16
REMARK    9  A    between atoms: _16  and  _17
REMARK   10  A    between atoms: _20  and  _22
REMARK   11  A    between atoms: _22  and  _23
REMARK   12  A    between atoms: _22  and  _25
REMARK   13  A    between atoms: _25  and  _26
REMARK   14  A    between atoms: _26  and  _27
REMARK   15  A    between atoms: _27  and  _28
REMARK   16  A    between atoms: _37  and  _39
REMARK   17  A    between atoms: _39  and  _40
REMARK   18  A    between atoms: _43  and  _44
REMARK   19  A    between atoms: _49  and  _51
REMARK   20  A    between atoms: _51  and  _52
REMARK   21  A    between atoms: _51  and  _54
REMARK   22  A    between atoms: _54  and  _55
REMARK   23  A    between atoms: _55  and  _56
REMARK   24  A    between atoms: _58  and  _60
REMARK   25  A    between atoms: _60  and  _61
REMARK   26  A    between atoms: _60  and  _63
REMARK   27  A    between atoms: _63  and  _64
REMARK   28  A    between atoms: _64  and  _65
REMARK   29  A    between atoms: _67  and  _69
REMARK   30  A    between atoms: _69  and  _70
REMARK   31  A    between atoms: _69  and  _72
REMARK   32  A    between atoms: _72  and  _73
REMARK   33  A    between atoms: _78  and  _80
REMARK   34  A    between atoms: _80  and  _81
REMARK   35  A    between atoms: _80  and  _83
REMARK   36  A    between atoms: _83  and  _84
REMARK   37  A    between atoms: _84  and  _85
REMARK   38  A    between atoms: _87  and  _89
REMARK   39  A    between atoms: _89  and  _90
REMARK   40  A    between atoms: _89  and  _92
REMARK   41  A    between atoms: _92  and  _93
REMARK   42  A    between atoms: _96  and  _98
REMARK   43  A    between atoms: _98  and  _99
REMARK   44  A    between atoms: _98  and  _101
REMARK   45  A    between atoms: _101  and  _102
REMARK   46  A    between atoms: _104  and  _106
REMARK   47  A    between atoms: _106  and  _107
REMARK   48  A    between atoms: _106  and  _109
REMARK   49  A    between atoms: _109  and  _110
REMARK   50  A    between atoms: _110  and  _111
REMARK   51  A    between atoms: _111  and  _112
REMARK   52  A    between atoms: _112  and  _113
REMARK   53  A    between atoms: _117  and  _119
REMARK   54  A    between atoms: _119  and  _120
REMARK   55  A    between atoms: _119  and  _122
REMARK   56  A    between atoms: _122  and  _123
REMARK   57  A    between atoms: _126  and  _128
REMARK   58  A    between atoms: _128  and  _129
REMARK   59  A    between atoms: _128  and  _131
REMARK   60  A    between atoms: _131  and  _132
REMARK   61  A    between atoms: _132  and  _133
REMARK   62  A    between atoms: _136  and  _138
REMARK   63  A    between atoms: _138  and  _139
REMARK   64  A    between atoms: _142  and  _144
REMARK   65  A    between atoms: _144  and  _145
REMARK   66  A    between atoms: _144  and  _147
REMARK   67  A    between atoms: _150  and  _152
REMARK   68  A    between atoms: _152  and  _153
REMARK   69  A    between atoms: _152  and  _155
REMARK   70  A    between atoms: _155  and  _156
REMARK   71  A    between atoms: _158  and  _160
REMARK   72  A    between atoms: _160  and  _161
REMARK   73  A    between atoms: _163  and  _165
REMARK   74  A    between atoms: _165  and  _166
REMARK   75  A    between atoms: _165  and  _168
REMARK   76  A    between atoms: _168  and  _169
REMARK   77  A    between atoms: _174  and  _176
REMARK   78  A    between atoms: _176  and  _177
REMARK   79  A    between atoms: _176  and  _179
REMARK   80  A    between atoms: _179  and  _180
REMARK   81  A    between atoms: _185  and  _186
REMARK   82  A    between atoms: _188  and  _190
REMARK   83  A    between atoms: _190  and  _191
REMARK   84  A    between atoms: _190  and  _193
REMARK   85  A    between atoms: _195  and  _197
REMARK   86  A    between atoms: _197  and  _198
REMARK   87  A    between atoms: _197  and  _200
REMARK   88  A    between atoms: _200  and  _201
REMARK   89  A    between atoms: _204  and  _206
REMARK   90  A    between atoms: _206  and  _207
REMARK   91  A    between atoms: _206  and  _209
REMARK   92  A    between atoms: _209  and  _210
REMARK   93  A    between atoms: _213  and  _215
REMARK   94  A    between atoms: _215  and  _216
REMARK   95  A    between atoms: _215  and  _218
REMARK   96  A    between atoms: _218  and  _219
REMARK   97  A    between atoms: _219  and  _220
REMARK   98  A    between atoms: _220  and  _221
REMARK   99  A    between atoms: _221  and  _222
REMARK  100  A    between atoms: _226  and  _228
REMARK  101  A    between atoms: _228  and  _229
REMARK  102  A    between atoms: _228  and  _231
REMARK  103  A    between atoms: _231  and  _232
REMARK  104  A    between atoms: _232  and  _233
REMARK  105  A    between atoms: _233  and  _234
REMARK  106  A    between atoms: _234  and  _235
REMARK  107  A    between atoms: _239  and  _241
REMARK  108  A    between atoms: _241  and  _242
REMARK  109  A    between atoms: _241  and  _244
REMARK  110  A    between atoms: _244  and  _245
REMARK  111  A    between atoms: _245  and  _246
REMARK  112  A    between atoms: _246  and  _247
REMARK  113  A    between atoms: _256  and  _258
REMARK  114  A    between atoms: _258  and  _259
REMARK  115  A    between atoms: _258  and  _261
REMARK  116  A    between atoms: _261  and  _262
REMARK  117  A    between atoms: _265  and  _267
REMARK  118  A    between atoms: _267  and  _268
REMARK  119  A    between atoms: _271  and  _273
REMARK  120  A    between atoms: _273  and  _274
REMARK  121  A    between atoms: _273  and  _276
REMARK  122  A    between atoms: _276  and  _277
REMARK  123  A    between atoms: _277  and  _278
REMARK  124  A    between atoms: _283  and  _285
REMARK  125  A    between atoms: _285  and  _286
REMARK  126  A    between atoms: _285  and  _288
REMARK  127  A    between atoms: _288  and  _289
REMARK  128  A    between atoms: _289  and  _290
REMARK  129  A    between atoms: _293  and  _295
REMARK  130  A    between atoms: _295  and  _296
REMARK  131  A    between atoms: _298  and  _300
REMARK  132  A    between atoms: _300  and  _301
REMARK  133  A    between atoms: _300  and  _303
REMARK  134  A    between atoms: _305  and  _307
REMARK  135  A    between atoms: _307  and  _308
REMARK  136  A    between atoms: _307  and  _310
REMARK  137  A    between atoms: _310  and  _311
REMARK  138  A    between atoms: _314  and  _316
REMARK  139  A    between atoms: _316  and  _317
REMARK  140  A    between atoms: _316  and  _319
REMARK  141  A    between atoms: _322  and  _324
REMARK  142  A    between atoms: _324  and  _325
REMARK  143  A    between atoms: _328  and  _330
REMARK  144  A    between atoms: _330  and  _331
REMARK  145  A    between atoms: _330  and  _333
REMARK  146  A    between atoms: _333  and  _334
REMARK  147  A    between atoms: _336  and  _338
REMARK  148  A    between atoms: _338  and  _339
REMARK  149  A    between atoms: _338  and  _341
REMARK  150  A    between atoms: _341  and  _342
REMARK  151  A    between atoms: _345  and  _347
REMARK  152  A    between atoms: _347  and  _348
REMARK  153  A    between atoms: _347  and  _350
REMARK  154  A    between atoms: _350  and  _351
REMARK  155  A    between atoms: _356  and  _358
REMARK  156  A    between atoms: _358  and  _359
REMARK  157  A    between atoms: _358  and  _361
REMARK  158  A    between atoms: _361  and  _362
REMARK  159  A    between atoms: _362  and  _363
REMARK  160  A    between atoms: _363  and  _364
REMARK  161  A    between atoms: _373  and  _375
REMARK  162  A    between atoms: _375  and  _376
REMARK  163  A    between atoms: _378  and  _380
REMARK  164  A    between atoms: _380  and  _381
REMARK  165  A    between atoms: _380  and  _383
REMARK  166  A    between atoms: _386  and  _388
REMARK  167  A    between atoms: _388  and  _389
REMARK  168  A    between atoms: _388  and  _391
REMARK  169  A    between atoms: _391  and  _392
REMARK  170  A    between atoms: _395  and  _397
REMARK  171  A    between atoms: _397  and  _398
REMARK  172  A    between atoms: _397  and  _400
REMARK  173  A    between atoms: _400  and  _401
REMARK  174  A    between atoms: _401  and  _402
REMARK  175  A    between atoms: _402  and  _403
REMARK  176  A    between atoms: _403  and  _404
REMARK  177  A    between atoms: _408  and  _410
REMARK  178  A    between atoms: _410  and  _411
REMARK  179  A    between atoms: _410  and  _413
REMARK  180  A    between atoms: _413  and  _414
REMARK  181  A    between atoms: _414  and  _415
REMARK  182  A    between atoms: _415  and  _416
REMARK  183  A    between atoms: _416  and  _417
REMARK  184  A    between atoms: _421  and  _423
REMARK  185  A    between atoms: _423  and  _424
REMARK  186  A    between atoms: _423  and  _426
REMARK  187  A    between atoms: _426  and  _427
REMARK  188  A    between atoms: _432  and  _434
REMARK  189  A    between atoms: _434  and  _435
REMARK  190  A    between atoms: _434  and  _437
REMARK  191  A    between atoms: _437  and  _438
REMARK  192  A    between atoms: _443  and  _445
REMARK  193  A    between atoms: _445  and  _446
REMARK  194  A    between atoms: _449  and  _451
REMARK  195  A    between atoms: _451  and  _452
REMARK  196  A    between atoms: _451  and  _454
REMARK  197  A    between atoms: _454  and  _455
REMARK  198  A    between atoms: _460  and  _462
REMARK  199  A    between atoms: _462  and  _463
REMARK  200  A    between atoms: _466  and  _468
REMARK  201  A    between atoms: _468  and  _469
REMARK  202  A    between atoms: _472  and  _474
REMARK  203  A    between atoms: _474  and  _475
REMARK  204  A    between atoms: _474  and  _477
REMARK  205  A    between atoms: _477  and  _478
REMARK  206  A    between atoms: _483  and  _485
REMARK  207  A    between atoms: _485  and  _486
REMARK  208  A    between atoms: _485  and  _488
REMARK  209  A    between atoms: _488  and  _489
REMARK  210  A    between atoms: _492  and  _494
REMARK  211  A    between atoms: _494  and  _495
REMARK  212  A    between atoms: _497  and  _499
REMARK  213  A    between atoms: _499  and  _500
REMARK  214  A    between atoms: _499  and  _502
REMARK  215  A    between atoms: _502  and  _503
REMARK  216  A    between atoms: _503  and  _504
REMARK  217  A    between atoms: _507  and  _509
REMARK  218  A    between atoms: _509  and  _510
REMARK  219  A    between atoms: _509  and  _512
REMARK  220  A    between atoms: _512  and  _513
REMARK  221  A    between atoms: _516  and  _518
REMARK  222  A    between atoms: _518  and  _519
REMARK  223  A    between atoms: _518  and  _521
REMARK  224  A    between atoms: _521  and  _522
REMARK  225  A    between atoms: _524  and  _526
REMARK  226  A    between atoms: _526  and  _527
REMARK  227  A    between atoms: _526  and  _529
REMARK  228  A    between atoms: _529  and  _530
REMARK  229  A    between atoms: _533  and  _535
REMARK  230  A    between atoms: _535  and  _536
REMARK  231  A    between atoms: _535  and  _538
REMARK  232  A    between atoms: _538  and  _539
REMARK  233  A    between atoms: _539  and  _540
REMARK  234  A    between atoms: _542  and  _544
REMARK  235  A    between atoms: _544  and  _545
REMARK  236  A    between atoms: _548  and  _550
REMARK  237  A    between atoms: _550  and  _551
REMARK  238  A    between atoms: _554  and  _556
REMARK  239  A    between atoms: _556  and  _557
REMARK  240  A    between atoms: _556  and  _559
REMARK  241  A    between atoms: _559  and  _560
REMARK  242  A    between atoms: _563  and  _565
REMARK  243  A    between atoms: _565  and  _566
REMARK  244  A    between atoms: _569  and  _571
REMARK  245  A    between atoms: _571  and  _572
REMARK                            x       y       z     vdW  Elec       q    Type
REMARK                         _______ _______ _______ _____ _____    ______ ____
ROOT
ATOM      1  O   HOH     1      86.162   3.445  -1.594  0.00  0.00    +0.000 OA
ENDROOT
TORSDOF 0
REMARK  Name = ../refined-set-2016/3ccz/3ccz_pocket.pdb
REMARK  245 active torsions:
REMARK  status: ('A' for Active; 'I' for Inactive)
REMARK    1  A    between atoms: _1  and  _3
REMARK    2  A    between atoms: _3  and  _4
REMARK    3  A    between atoms: _3  and  _6
REMARK    4  A    between atoms: _6  and  _7
REMARK    5  A    between atoms: _7  and  _8
REMARK    6  A    between atoms: _11  and  _13
REMARK    7  A    between atoms: _13  and  _14
REMARK    8  A    between atoms: _13  and  _16
REMARK    9  A    between atoms: _16  and  _17
REMARK   10  A    between atoms: _20  and  _22
REMARK   11  A    between atoms: _22  and  _23
REMARK   12  A    between atoms: _22  and  _25
REMARK   13  A    between atoms: _25  and  _26
REMARK   14  A    between atoms: _26  and  _27
REMARK   15  A    between atoms: _27  and  _28
REMARK   16  A    between atoms: _37  and  _39
REMARK   17  A    between atoms: _39  and  _40
REMARK   18  A    between atoms: _43  and  _44
REMARK   19  A    between atoms: _49  and  _51
REMARK   20  A    between atoms: _51  and  _52
REMARK   21  A    between atoms: _51  and  _54
REMARK   22  A    between atoms: _54  and  _55
REMARK   23  A    between atoms: _55  and  _56
REMARK   24  A    between atoms: _58  and  _60
REMARK   25  A    between atoms: _60  and  _61
REMARK   26  A    between atoms: _60  and  _63
REMARK   27  A    between atoms: _63  and  _64
REMARK   28  A    between atoms: _64  and  _65
REMARK   29  A    between atoms: _67  and  _69
REMARK   30  A    between atoms: _69  and  _70
REMARK   31  A    between atoms: _69  and  _72
REMARK   32  A    between atoms: _72  and  _73
REMARK   33  A    between atoms: _78  and  _80
REMARK   34  A    between atoms: _80  and  _81
REMARK   35  A    between atoms: _80  and  _83
REMARK   36  A    between atoms: _83  and  _84
REMARK   37  A    between atoms: _84  and  _85
REMARK   38  A    between atoms: _87  and  _89
REMARK   39  A    between atoms: _89  and  _90
REMARK   40  A    between atoms: _89  and  _92
REMARK   41  A    between atoms: _92  and  _93
REMARK   42  A    between atoms: _96  and  _98
REMARK   43  A    between atoms: _98  and  _99
REMARK   44  A    between atoms: _98  and  _101
REMARK   45  A    between atoms: _101  and  _102
REMARK   46  A    between atoms: _104  and  _106
REMARK   47  A    between atoms: _106  and  _107
REMARK   48  A    between atoms: _106  and  _109
REMARK   49  A    between atoms: _109  and  _110
REMARK   50  A    between atoms: _110  and  _111
REMARK   51  A    between atoms: _111  and  _112
REMARK   52  A    between atoms: _112  and  _113
REMARK   53  A    between atoms: _117  and  _119
REMARK   54  A    between atoms: _119  and  _120
REMARK   55  A    between atoms: _119  and  _122
REMARK   56  A    between atoms: _122  and  _123
REMARK   57  A    between atoms: _126  and  _128
REMARK   58  A    between atoms: _128  and  _129
REMARK   59  A    between atoms: _128  and  _131
REMARK   60  A    between atoms: _131  and  _132
REMARK   61  A    between atoms: _132  and  _133
REMARK   62  A    between atoms: _136  and  _138
REMARK   63  A    between atoms: _138  and  _139
REMARK   64  A    between atoms: _142  and  _144
REMARK   65  A    between atoms: _144  and  _145
REMARK   66  A    between atoms: _144  and  _147
REMARK   67  A    between atoms: _150  and  _152
REMARK   68  A    between atoms: _152  and  _153
REMARK   69  A    between atoms: _152  and  _155
REMARK   70  A    between atoms: _155  and  _156
REMARK   71  A    between atoms: _158  and  _160
REMARK   72  A    between atoms: _160  and  _161
REMARK   73  A    between atoms: _163  and  _165
REMARK   74  A    between atoms: _165  and  _166
REMARK   75  A    between atoms: _165  and  _168
REMARK   76  A    between atoms: _168  and  _169
REMARK   77  A    between atoms: _174  and  _176
REMARK   78  A    between atoms: _176  and  _177
REMARK   79  A    between atoms: _176  and  _179
REMARK   80  A    between atoms: _179  and  _180
REMARK   81  A    between atoms: _185  and  _186
REMARK   82  A    between atoms: _188  and  _190
REMARK   83  A    between atoms: _190  and  _191
REMARK   84  A    between atoms: _190  and  _193
REMARK   85  A    between atoms: _195  and  _197
REMARK   86  A    between atoms: _197  and  _198
REMARK   87  A    between atoms: _197  and  _200
REMARK   88  A    between atoms: _200  and  _201
REMARK   89  A    between atoms: _204  and  _206
REMARK   90  A    between atoms: _206  and  _207
REMARK   91  A    between atoms: _206  and  _209
REMARK   92  A    between atoms: _209  and  _210
REMARK   93  A    between atoms: _213  and  _215
REMARK   94  A    between atoms: _215  and  _216
REMARK   95  A    between atoms: _215  and  _218
REMARK   96  A    between atoms: _218  and  _219
REMARK   97  A    between atoms: _219  and  _220
REMARK   98  A    between atoms: _220  and  _221
REMARK   99  A    between atoms: _221  and  _222
REMARK  100  A    between atoms: _226  and  _228
REMARK  101  A    between atoms: _228  and  _229
REMARK  102  A    between atoms: _228  and  _231
REMARK  103  A    between atoms: _231  and  _232
REMARK  104  A    between atoms: _232  and  _233
REMARK  105  A    between atoms: _233  and  _234
REMARK  106  A    between atoms: _234  and  _235
REMARK  107  A    between atoms: _239  and  _241
REMARK  108  A    between atoms: _241  and  _242
REMARK  109  A    between atoms: _241  and  _244
REMARK  110  A    between atoms: _244  and  _245
REMARK  111  A    between atoms: _245  and  _246
REMARK  112  A    between atoms: _246  and  _247
REMARK  113  A    between atoms: _256  and  _258
REMARK  114  A    between atoms: _258  and  _259
REMARK  115  A    between atoms: _258  and  _261
REMARK  116  A    between atoms: _261  and  _262
REMARK  117  A    between atoms: _265  and  _267
REMARK  118  A    between atoms: _267  and  _268
REMARK  119  A    between atoms: _271  and  _273
REMARK  120  A    between atoms: _273  and  _274
REMARK  121  A    between atoms: _273  and  _276
REMARK  122  A    between atoms: _276  and  _277
REMARK  123  A    between atoms: _277  and  _278
REMARK  124  A    between atoms: _283  and  _285
REMARK  125  A    between atoms: _285  and  _286
REMARK  126  A    between atoms: _285  and  _288
REMARK  127  A    between atoms: _288  and  _289
REMARK  128  A    between atoms: _289  and  _290
REMARK  129  A    between atoms: _293  and  _295
REMARK  130  A    between atoms: _295  and  _296
REMARK  131  A    between atoms: _298  and  _300
REMARK  132  A    between atoms: _300  and  _301
REMARK  133  A    between atoms: _300  and  _303
REMARK  134  A    between atoms: _305  and  _307
REMARK  135  A    between atoms: _307  and  _308
REMARK  136  A    between atoms: _307  and  _310
REMARK  137  A    between atoms: _310  and  _311
REMARK  138  A    between atoms: _314  and  _316
REMARK  139  A    between atoms: _316  and  _317
REMARK  140  A    between atoms: _316  and  _319
REMARK  141  A    between atoms: _322  and  _324
REMARK  142  A    between atoms: _324  and  _325
REMARK  143  A    between atoms: _328  and  _330
REMARK  144  A    between atoms: _330  and  _331
REMARK  145  A    between atoms: _330  and  _333
REMARK  146  A    between atoms: _333  and  _334
REMARK  147  A    between atoms: _336  and  _338
REMARK  148  A    between atoms: _338  and  _339
REMARK  149  A    between atoms: _338  and  _341
REMARK  150  A    between atoms: _341  and  _342
REMARK  151  A    between atoms: _345  and  _347
REMARK  152  A    between atoms: _347  and  _348
REMARK  153  A    between atoms: _347  and  _350
REMARK  154  A    between atoms: _350  and  _351
REMARK  155  A    between atoms: _356  and  _358
REMARK  156  A    between atoms: _358  and  _359
REMARK  157  A    between atoms: _358  and  _361
REMARK  158  A    between atoms: _361  and  _362
REMARK  159  A    between atoms: _362  and  _363
REMARK  160  A    between atoms: _363  and  _364
REMARK  161  A    between atoms: _373  and  _375
REMARK  162  A    between atoms: _375  and  _376
REMARK  163  A    between atoms: _378  and  _380
REMARK  164  A    between atoms: _380  and  _381
REMARK  165  A    between atoms: _380  and  _383
REMARK  166  A    between atoms: _386  and  _388
REMARK  167  A    between atoms: _388  and  _389
REMARK  168  A    between atoms: _388  and  _391
REMARK  169  A    between atoms: _391  and  _392
REMARK  170  A    between atoms: _395  and  _397
REMARK  171  A    between atoms: _397  and  _398
REMARK  172  A    between atoms: _397  and  _400
REMARK  173  A    between atoms: _400  and  _401
REMARK  174  A    between atoms: _401  and  _402
REMARK  175  A    between atoms: _402  and  _403
REMARK  176  A    between atoms: _403  and  _404
REMARK  177  A    between atoms: _408  and  _410
REMARK  178  A    between atoms: _410  and  _411
REMARK  179  A    between atoms: _410  and  _413
REMARK  180  A    between atoms: _413  and  _414
REMARK  181  A    between atoms: _414  and  _415
REMARK  182  A    between atoms: _415  and  _416
REMARK  183  A    between atoms: _416  and  _417
REMARK  184  A    between atoms: _421  and  _423
REMARK  185  A    between atoms: _423  and  _424
REMARK  186  A    between atoms: _423  and  _426
REMARK  187  A    between atoms: _426  and  _427
REMARK  188  A    between atoms: _432  and  _434
REMARK  189  A    between atoms: _434  and  _435
REMARK  190  A    between atoms: _434  and  _437
REMARK  191  A    between atoms: _437  and  _438
REMARK  192  A    between atoms: _443  and  _445
REMARK  193  A    between atoms: _445  and  _446
REMARK  194  A    between atoms: _449  and  _451
REMARK  195  A    between atoms: _451  and  _452
REMARK  196  A    between atoms: _451  and  _454
REMARK  197  A    between atoms: _454  and  _455
REMARK  198  A    between atoms: _460  and  _462
REMARK  199  A    between atoms: _462  and  _463
REMARK  200  A    between atoms: _466  and  _468
REMARK  201  A    between atoms: _468  and  _469
REMARK  202  A    between atoms: _472  and  _474
REMARK  203  A    between atoms: _474  and  _475
REMARK  204  A    between atoms: _474  and  _477
REMARK  205  A    between atoms: _477  and  _478
REMARK  206  A    between atoms: _483  and  _485
REMARK  207  A    between atoms: _485  and  _486
REMARK  208  A    between atoms: _485  and  _488
REMARK  209  A    between atoms: _488  and  _489
REMARK  210  A    between atoms: _492  and  _494
REMARK  211  A    between atoms: _494  and  _495
REMARK  212  A    between atoms: _497  and  _499
REMARK  213  A    between atoms: _499  and  _500
REMARK  214  A    between atoms: _499  and  _502
REMARK  215  A    between atoms: _502  and  _503
REMARK  216  A    between atoms: _503  and  _504
REMARK  217  A    between atoms: _507  and  _509
REMARK  218  A    between atoms: _509  and  _510
REMARK  219  A    between atoms: _509  and  _512
REMARK  220  A    between atoms: _512  and  _513
REMARK  221  A    between atoms: _516  and  _518
REMARK  222  A    between atoms: _518  and  _519
REMARK  223  A    between atoms: _518  and  _521
REMARK  224  A    between atoms: _521  and  _522
REMARK  225  A    between atoms: _524  and  _526
REMARK  226  A    between atoms: _526  and  _527
REMARK  227  A    between atoms: _526  and  _529
REMARK  228  A    between atoms: _529  and  _530
REMARK  229  A    between atoms: _533  and  _535
REMARK  230  A    between atoms: _535  and  _536
REMARK  231  A    between atoms: _535  and  _538
REMARK  232  A    between atoms: _538  and  _539
REMARK  233  A    between atoms: _539  and  _540
REMARK  234  A    between atoms: _542  and  _544
REMARK  235  A    between atoms: _544  and  _545
REMARK  236  A    between atoms: _548  and  _550
REMARK  237  A    between atoms: _550  and  _551
REMARK  238  A    between atoms: _554  and  _556
REMARK  239  A    between atoms: _556  and  _557
REMARK  240  A    between atoms: _556  and  _559
REMARK  241  A    between atoms: _559  and  _560
REMARK  242  A    between atoms: _563  and  _565
REMARK  243  A    between atoms: _565  and  _566
REMARK  244  A    between atoms: _569  and  _571
REMARK  245  A    between atoms: _571  and  _572
REMARK                            x       y       z     vdW  Elec       q    Type
REMARK                         _______ _______ _______ _____ _____    ______ ____
ROOT
ATOM      1  O   HOH     1      79.544   1.728  -1.946  0.00  0.00    +0.000 OA
ENDROOT
TORSDOF 0
REMARK  Name = ../refined-set-2016/3ccz/3ccz_pocket.pdb
REMARK  245 active torsions:
REMARK  status: ('A' for Active; 'I' for Inactive)
REMARK    1  A    between atoms: _1  and  _3
REMARK    2  A    between atoms: _3  and  _4
REMARK    3  A    between atoms: _3  and  _6
REMARK    4  A    between atoms: _6  and  _7
REMARK    5  A    between atoms: _7  and  _8
REMARK    6  A    between atoms: _11  and  _13
REMARK    7  A    between atoms: _13  and  _14
REMARK    8  A    between atoms: _13  and  _16
REMARK    9  A    between atoms: _16  and  _17
REMARK   10  A    between atoms: _20  and  _22
REMARK   11  A    between atoms: _22  and  _23
REMARK   12  A    between atoms: _22  and  _25
REMARK   13  A    between atoms: _25  and  _26
REMARK   14  A    between atoms: _26  and  _27
REMARK   15  A    between atoms: _27  and  _28
REMARK   16  A    between atoms: _37  and  _39
REMARK   17  A    between atoms: _39  and  _40
REMARK   18  A    between atoms: _43  and  _44
REMARK   19  A    between atoms: _49  and  _51
REMARK   20  A    between atoms: _51  and  _52
REMARK   21  A    between atoms: _51  and  _54
REMARK   22  A    between atoms: _54  and  _55
REMARK   23  A    between atoms: _55  and  _56
REMARK   24  A    between atoms: _58  and  _60
REMARK   25  A    between atoms: _60  and  _61
REMARK   26  A    between atoms: _60  and  _63
REMARK   27  A    between atoms: _63  and  _64
REMARK   28  A    between atoms: _64  and  _65
REMARK   29  A    between atoms: _67  and  _69
REMARK   30  A    between atoms: _69  and  _70
REMARK   31  A    between atoms: _69  and  _72
REMARK   32  A    between atoms: _72  and  _73
REMARK   33  A    between atoms: _78  and  _80
REMARK   34  A    between atoms: _80  and  _81
REMARK   35  A    between atoms: _80  and  _83
REMARK   36  A    between atoms: _83  and  _84
REMARK   37  A    between atoms: _84  and  _85
REMARK   38  A    between atoms: _87  and  _89
REMARK   39  A    between atoms: _89  and  _90
REMARK   40  A    between atoms: _89  and  _92
REMARK   41  A    between atoms: _92  and  _93
REMARK   42  A    between atoms: _96  and  _98
REMARK   43  A    between atoms: _98  and  _99
REMARK   44  A    between atoms: _98  and  _101
REMARK   45  A    between atoms: _101  and  _102
REMARK   46  A    between atoms: _104  and  _106
REMARK   47  A    between atoms: _106  and  _107
REMARK   48  A    between atoms: _106  and  _109
REMARK   49  A    between atoms: _109  and  _110
REMARK   50  A    between atoms: _110  and  _111
REMARK   51  A    between atoms: _111  and  _112
REMARK   52  A    between atoms: _112  and  _113
REMARK   53  A    between atoms: _117  and  _119
REMARK   54  A    between atoms: _119  and  _120
REMARK   55  A    between atoms: _119  and  _122
REMARK   56  A    between atoms: _122  and  _123
REMARK   57  A    between atoms: _126  and  _128
REMARK   58  A    between atoms: _128  and  _129
REMARK   59  A    between atoms: _128  and  _131
REMARK   60  A    between atoms: _131  and  _132
REMARK   61  A    between atoms: _132  and  _133
REMARK   62  A    between atoms: _136  and  _138
REMARK   63  A    between atoms: _138  and  _139
REMARK   64  A    between atoms: _142  and  _144
REMARK   65  A    between atoms: _144  and  _145
REMARK   66  A    between atoms: _144  and  _147
REMARK   67  A    between atoms: _150  and  _152
REMARK   68  A    between atoms: _152  and  _153
REMARK   69  A    between atoms: _152  and  _155
REMARK   70  A    between atoms: _155  and  _156
REMARK   71  A    between atoms: _158  and  _160
REMARK   72  A    between atoms: _160  and  _161
REMARK   73  A    between atoms: _163  and  _165
REMARK   74  A    between atoms: _165  and  _166
REMARK   75  A    between atoms: _165  and  _168
REMARK   76  A    between atoms: _168  and  _169
REMARK   77  A    between atoms: _174  and  _176
REMARK   78  A    between atoms: _176  and  _177
REMARK   79  A    between atoms: _176  and  _179
REMARK   80  A    between atoms: _179  and  _180
REMARK   81  A    between atoms: _185  and  _186
REMARK   82  A    between atoms: _188  and  _190
REMARK   83  A    between atoms: _190  and  _191
REMARK   84  A    between atoms: _190  and  _193
REMARK   85  A    between atoms: _195  and  _197
REMARK   86  A    between atoms: _197  and  _198
REMARK   87  A    between atoms: _197  and  _200
REMARK   88  A    between atoms: _200  and  _201
REMARK   89  A    between atoms: _204  and  _206
REMARK   90  A    between atoms: _206  and  _207
REMARK   91  A    between atoms: _206  and  _209
REMARK   92  A    between atoms: _209  and  _210
REMARK   93  A    between atoms: _213  and  _215
REMARK   94  A    between atoms: _215  and  _216
REMARK   95  A    between atoms: _215  and  _218
REMARK   96  A    between atoms: _218  and  _219
REMARK   97  A    between atoms: _219  and  _220
REMARK   98  A    between atoms: _220  and  _221
REMARK   99  A    between atoms: _221  and  _222
REMARK  100  A    between atoms: _226  and  _228
REMARK  101  A    between atoms: _228  and  _229
REMARK  102  A    between atoms: _228  and  _231
REMARK  103  A    between atoms: _231  and  _232
REMARK  104  A    between atoms: _232  and  _233
REMARK  105  A    between atoms: _233  and  _234
REMARK  106  A    between atoms: _234  and  _235
REMARK  107  A    between atoms: _239  and  _241
REMARK  108  A    between atoms: _241  and  _242
REMARK  109  A    between atoms: _241  and  _244
REMARK  110  A    between atoms: _244  and  _245
REMARK  111  A    between atoms: _245  and  _246
REMARK  112  A    between atoms: _246  and  _247
REMARK  113  A    between atoms: _256  and  _258
REMARK  114  A    between atoms: _258  and  _259
REMARK  115  A    between atoms: _258  and  _261
REMARK  116  A    between atoms: _261  and  _262
REMARK  117  A    between atoms: _265  and  _267
REMARK  118  A    between atoms: _267  and  _268
REMARK  119  A    between atoms: _271  and  _273
REMARK  120  A    between atoms: _273  and  _274
REMARK  121  A    between atoms: _273  and  _276
REMARK  122  A    between atoms: _276  and  _277
REMARK  123  A    between atoms: _277  and  _278
REMARK  124  A    between atoms: _283  and  _285
REMARK  125  A    between atoms: _285  and  _286
REMARK  126  A    between atoms: _285  and  _288
REMARK  127  A    between atoms: _288  and  _289
REMARK  128  A    between atoms: _289  and  _290
REMARK  129  A    between atoms: _293  and  _295
REMARK  130  A    between atoms: _295  and  _296
REMARK  131  A    between atoms: _298  and  _300
REMARK  132  A    between atoms: _300  and  _301
REMARK  133  A    between atoms: _300  and  _303
REMARK  134  A    between atoms: _305  and  _307
REMARK  135  A    between atoms: _307  and  _308
REMARK  136  A    between atoms: _307  and  _310
REMARK  137  A    between atoms: _310  and  _311
REMARK  138  A    between atoms: _314  and  _316
REMARK  139  A    between atoms: _316  and  _317
REMARK  140  A    between atoms: _316  and  _319
REMARK  141  A    between atoms: _322  and  _324
REMARK  142  A    between atoms: _324  and  _325
REMARK  143  A    between atoms: _328  and  _330
REMARK  144  A    between atoms: _330  and  _331
REMARK  145  A    between atoms: _330  and  _333
REMARK  146  A    between atoms: _333  and  _334
REMARK  147  A    between atoms: _336  and  _338
REMARK  148  A    between atoms: _338  and  _339
REMARK  149  A    between atoms: _338  and  _341
REMARK  150  A    between atoms: _341  and  _342
REMARK  151  A    between atoms: _345  and  _347
REMARK  152  A    between atoms: _347  and  _348
REMARK  153  A    between atoms: _347  and  _350
REMARK  154  A    between atoms: _350  and  _351
REMARK  155  A    between atoms: _356  and  _358
REMARK  156  A    between atoms: _358  and  _359
REMARK  157  A    between atoms: _358  and  _361
REMARK  158  A    between atoms: _361  and  _362
REMARK  159  A    between atoms: _362  and  _363
REMARK  160  A    between atoms: _363  and  _364
REMARK  161  A    between atoms: _373  and  _375
REMARK  162  A    between atoms: _375  and  _376
REMARK  163  A    between atoms: _378  and  _380
REMARK  164  A    between atoms: _380  and  _381
REMARK  165  A    between atoms: _380  and  _383
REMARK  166  A    between atoms: _386  and  _388
REMARK  167  A    between atoms: _388  and  _389
REMARK  168  A    between atoms: _388  and  _391
REMARK  169  A    between atoms: _391  and  _392
REMARK  170  A    between atoms: _395  and  _397
REMARK  171  A    between atoms: _397  and  _398
REMARK  172  A    between atoms: _397  and  _400
REMARK  173  A    between atoms: _400  and  _401
REMARK  174  A    between atoms: _401  and  _402
REMARK  175  A    between atoms: _402  and  _403
REMARK  176  A    between atoms: _403  and  _404
REMARK  177  A    between atoms: _408  and  _410
REMARK  178  A    between atoms: _410  and  _411
REMARK  179  A    between atoms: _410  and  _413
REMARK  180  A    between atoms: _413  and  _414
REMARK  181  A    between atoms: _414  and  _415
REMARK  182  A    between atoms: _415  and  _416
REMARK  183  A    between atoms: _416  and  _417
REMARK  184  A    between atoms: _421  and  _423
REMARK  185  A    between atoms: _423  and  _424
REMARK  186  A    between atoms: _423  and  _426
REMARK  187  A    between atoms: _426  and  _427
REMARK  188  A    between atoms: _432  and  _434
REMARK  189  A    between atoms: _434  and  _435
REMARK  190  A    between atoms: _434  and  _437
REMARK  191  A    between atoms: _437  and  _438
REMARK  192  A    between atoms: _443  and  _445
REMARK  193  A    between atoms: _445  and  _446
REMARK  194  A    between atoms: _449  and  _451
REMARK  195  A    between atoms: _451  and  _452
REMARK  196  A    between atoms: _451  and  _454
REMARK  197  A    between atoms: _454  and  _455
REMARK  198  A    between atoms: _460  and  _462
REMARK  199  A    between atoms: _462  and  _463
REMARK  200  A    between atoms: _466  and  _468
REMARK  201  A    between atoms: _468  and  _469
REMARK  202  A    between atoms: _472  and  _474
REMARK  203  A    between atoms: _474  and  _475
REMARK  204  A    between atoms: _474  and  _477
REMARK  205  A    between atoms: _477  and  _478
REMARK  206  A    between atoms: _483  and  _485
REMARK  207  A    between atoms: _485  and  _486
REMARK  208  A    between atoms: _485  and  _488
REMARK  209  A    between atoms: _488  and  _489
REMARK  210  A    between atoms: _492  and  _494
REMARK  211  A    between atoms: _494  and  _495
REMARK  212  A    between atoms: _497  and  _499
REMARK  213  A    between atoms: _499  and  _500
REMARK  214  A    between atoms: _499  and  _502
REMARK  215  A    between atoms: _502  and  _503
REMARK  216  A    between atoms: _503  and  _504
REMARK  217  A    between atoms: _507  and  _509
REMARK  218  A    between atoms: _509  and  _510
REMARK  219  A    between atoms: _509  and  _512
REMARK  220  A    between atoms: _512  and  _513
REMARK  221  A    between atoms: _516  and  _518
REMARK  222  A    between atoms: _518  and  _519
REMARK  223  A    between atoms: _518  and  _521
REMARK  224  A    between atoms: _521  and  _522
REMARK  225  A    between atoms: _524  and  _526
REMARK  226  A    between atoms: _526  and  _527
REMARK  227  A    between atoms: _526  and  _529
REMARK  228  A    between atoms: _529  and  _530
REMARK  229  A    between atoms: _533  and  _535
REMARK  230  A    between atoms: _535  and  _536
REMARK  231  A    between atoms: _535  and  _538
REMARK  232  A    between atoms: _538  and  _539
REMARK  233  A    between atoms: _539  and  _540
REMARK  234  A    between atoms: _542  and  _544
REMARK  235  A    between atoms: _544  and  _545
REMARK  236  A    between atoms: _548  and  _550
REMARK  237  A    between atoms: _550  and  _551
REMARK  238  A    between atoms: _554  and  _556
REMARK  239  A    between atoms: _556  and  _557
REMARK  240  A    between atoms: _556  and  _559
REMARK  241  A    between atoms: _559  and  _560
REMARK  242  A    between atoms: _563  and  _565
REMARK  243  A    between atoms: _565  and  _566
REMARK  244  A    between atoms: _569  and  _571
REMARK  245  A    between atoms: _571  and  _572
REMARK                            x       y       z     vdW  Elec       q    Type
REMARK                         _______ _______ _______ _____ _____    ______ ____
ROOT
ATOM      1  O   HOH     1      75.872   2.893  -6.172  0.00  0.00    +0.000 OA
ENDROOT
TORSDOF 0
REMARK  Name = ../refined-set-2016/3ccz/3ccz_pocket.pdb
REMARK  245 active torsions:
REMARK  status: ('A' for Active; 'I' for Inactive)
REMARK    1  A    between atoms: _1  and  _3
REMARK    2  A    between atoms: _3  and  _4
REMARK    3  A    between atoms: _3  and  _6
REMARK    4  A    between atoms: _6  and  _7
REMARK    5  A    between atoms: _7  and  _8
REMARK    6  A    between atoms: _11  and  _13
REMARK    7  A    between atoms: _13  and  _14
REMARK    8  A    between atoms: _13  and  _16
REMARK    9  A    between atoms: _16  and  _17
REMARK   10  A    between atoms: _20  and  _22
REMARK   11  A    between atoms: _22  and  _23
REMARK   12  A    between atoms: _22  and  _25
REMARK   13  A    between atoms: _25  and  _26
REMARK   14  A    between atoms: _26  and  _27
REMARK   15  A    between atoms: _27  and  _28
REMARK   16  A    between atoms: _37  and  _39
REMARK   17  A    between atoms: _39  and  _40
REMARK   18  A    between atoms: _43  and  _44
REMARK   19  A    between atoms: _49  and  _51
REMARK   20  A    between atoms: _51  and  _52
REMARK   21  A    between atoms: _51  and  _54
REMARK   22  A    between atoms: _54  and  _55
REMARK   23  A    between atoms: _55  and  _56
REMARK   24  A    between atoms: _58  and  _60
REMARK   25  A    between atoms: _60  and  _61
REMARK   26  A    between atoms: _60  and  _63
REMARK   27  A    between atoms: _63  and  _64
REMARK   28  A    between atoms: _64  and  _65
REMARK   29  A    between atoms: _67  and  _69
REMARK   30  A    between atoms: _69  and  _70
REMARK   31  A    between atoms: _69  and  _72
REMARK   32  A    between atoms: _72  and  _73
REMARK   33  A    between atoms: _78  and  _80
REMARK   34  A    between atoms: _80  and  _81
REMARK   35  A    between atoms: _80  and  _83
REMARK   36  A    between atoms: _83  and  _84
REMARK   37  A    between atoms: _84  and  _85
REMARK   38  A    between atoms: _87  and  _89
REMARK   39  A    between atoms: _89  and  _90
REMARK   40  A    between atoms: _89  and  _92
REMARK   41  A    between atoms: _92  and  _93
REMARK   42  A    between atoms: _96  and  _98
REMARK   43  A    between atoms: _98  and  _99
REMARK   44  A    between atoms: _98  and  _101
REMARK   45  A    between atoms: _101  and  _102
REMARK   46  A    between atoms: _104  and  _106
REMARK   47  A    between atoms: _106  and  _107
REMARK   48  A    between atoms: _106  and  _109
REMARK   49  A    between atoms: _109  and  _110
REMARK   50  A    between atoms: _110  and  _111
REMARK   51  A    between atoms: _111  and  _112
REMARK   52  A    between atoms: _112  and  _113
REMARK   53  A    between atoms: _117  and  _119
REMARK   54  A    between atoms: _119  and  _120
REMARK   55  A    between atoms: _119  and  _122
REMARK   56  A    between atoms: _122  and  _123
REMARK   57  A    between atoms: _126  and  _128
REMARK   58  A    between atoms: _128  and  _129
REMARK   59  A    between atoms: _128  and  _131
REMARK   60  A    between atoms: _131  and  _132
REMARK   61  A    between atoms: _132  and  _133
REMARK   62  A    between atoms: _136  and  _138
REMARK   63  A    between atoms: _138  and  _139
REMARK   64  A    between atoms: _142  and  _144
REMARK   65  A    between atoms: _144  and  _145
REMARK   66  A    between atoms: _144  and  _147
REMARK   67  A    between atoms: _150  and  _152
REMARK   68  A    between atoms: _152  and  _153
REMARK   69  A    between atoms: _152  and  _155
REMARK   70  A    between atoms: _155  and  _156
REMARK   71  A    between atoms: _158  and  _160
REMARK   72  A    between atoms: _160  and  _161
REMARK   73  A    between atoms: _163  and  _165
REMARK   74  A    between atoms: _165  and  _166
REMARK   75  A    between atoms: _165  and  _168
REMARK   76  A    between atoms: _168  and  _169
REMARK   77  A    between atoms: _174  and  _176
REMARK   78  A    between atoms: _176  and  _177
REMARK   79  A    between atoms: _176  and  _179
REMARK   80  A    between atoms: _179  and  _180
REMARK   81  A    between atoms: _185  and  _186
REMARK   82  A    between atoms: _188  and  _190
REMARK   83  A    between atoms: _190  and  _191
REMARK   84  A    between atoms: _190  and  _193
REMARK   85  A    between atoms: _195  and  _197
REMARK   86  A    between atoms: _197  and  _198
REMARK   87  A    between atoms: _197  and  _200
REMARK   88  A    between atoms: _200  and  _201
REMARK   89  A    between atoms: _204  and  _206
REMARK   90  A    between atoms: _206  and  _207
REMARK   91  A    between atoms: _206  and  _209
REMARK   92  A    between atoms: _209  and  _210
REMARK   93  A    between atoms: _213  and  _215
REMARK   94  A    between atoms: _215  and  _216
REMARK   95  A    between atoms: _215  and  _218
REMARK   96  A    between atoms: _218  and  _219
REMARK   97  A    between atoms: _219  and  _220
REMARK   98  A    between atoms: _220  and  _221
REMARK   99  A    between atoms: _221  and  _222
REMARK  100  A    between atoms: _226  and  _228
REMARK  101  A    between atoms: _228  and  _229
REMARK  102  A    between atoms: _228  and  _231
REMARK  103  A    between atoms: _231  and  _232
REMARK  104  A    between atoms: _232  and  _233
REMARK  105  A    between atoms: _233  and  _234
REMARK  106  A    between atoms: _234  and  _235
REMARK  107  A    between atoms: _239  and  _241
REMARK  108  A    between atoms: _241  and  _242
REMARK  109  A    between atoms: _241  and  _244
REMARK  110  A    between atoms: _244  and  _245
REMARK  111  A    between atoms: _245  and  _246
REMARK  112  A    between atoms: _246  and  _247
REMARK  113  A    between atoms: _256  and  _258
REMARK  114  A    between atoms: _258  and  _259
REMARK  115  A    between atoms: _258  and  _261
REMARK  116  A    between atoms: _261  and  _262
REMARK  117  A    between atoms: _265  and  _267
REMARK  118  A    between atoms: _267  and  _268
REMARK  119  A    between atoms: _271  and  _273
REMARK  120  A    between atoms: _273  and  _274
REMARK  121  A    between atoms: _273  and  _276
REMARK  122  A    between atoms: _276  and  _277
REMARK  123  A    between atoms: _277  and  _278
REMARK  124  A    between atoms: _283  and  _285
REMARK  125  A    between atoms: _285  and  _286
REMARK  126  A    between atoms: _285  and  _288
REMARK  127  A    between atoms: _288  and  _289
REMARK  128  A    between atoms: _289  and  _290
REMARK  129  A    between atoms: _293  and  _295
REMARK  130  A    between atoms: _295  and  _296
REMARK  131  A    between atoms: _298  and  _300
REMARK  132  A    between atoms: _300  and  _301
REMARK  133  A    between atoms: _300  and  _303
REMARK  134  A    between atoms: _305  and  _307
REMARK  135  A    between atoms: _307  and  _308
REMARK  136  A    between atoms: _307  and  _310
REMARK  137  A    between atoms: _310  and  _311
REMARK  138  A    between atoms: _314  and  _316
REMARK  139  A    between atoms: _316  and  _317
REMARK  140  A    between atoms: _316  and  _319
REMARK  141  A    between atoms: _322  and  _324
REMARK  142  A    between atoms: _324  and  _325
REMARK  143  A    between atoms: _328  and  _330
REMARK  144  A    between atoms: _330  and  _331
REMARK  145  A    between atoms: _330  and  _333
REMARK  146  A    between atoms: _333  and  _334
REMARK  147  A    between atoms: _336  and  _338
REMARK  148  A    between atoms: _338  and  _339
REMARK  149  A    between atoms: _338  and  _341
REMARK  150  A    between atoms: _341  and  _342
REMARK  151  A    between atoms: _345  and  _347
REMARK  152  A    between atoms: _347  and  _348
REMARK  153  A    between atoms: _347  and  _350
REMARK  154  A    between atoms: _350  and  _351
REMARK  155  A    between atoms: _356  and  _358
REMARK  156  A    between atoms: _358  and  _359
REMARK  157  A    between atoms: _358  and  _361
REMARK  158  A    between atoms: _361  and  _362
REMARK  159  A    between atoms: _362  and  _363
REMARK  160  A    between atoms: _363  and  _364
REMARK  161  A    between atoms: _373  and  _375
REMARK  162  A    between atoms: _375  and  _376
REMARK  163  A    between atoms: _378  and  _380
REMARK  164  A    between atoms: _380  and  _381
REMARK  165  A    between atoms: _380  and  _383
REMARK  166  A    between atoms: _386  and  _388
REMARK  167  A    between atoms: _388  and  _389
REMARK  168  A    between atoms: _388  and  _391
REMARK  169  A    between atoms: _391  and  _392
REMARK  170  A    between atoms: _395  and  _397
REMARK  171  A    between atoms: _397  and  _398
REMARK  172  A    between atoms: _397  and  _400
REMARK  173  A    between atoms: _400  and  _401
REMARK  174  A    between atoms: _401  and  _402
REMARK  175  A    between atoms: _402  and  _403
REMARK  176  A    between atoms: _403  and  _404
REMARK  177  A    between atoms: _408  and  _410
REMARK  178  A    between atoms: _410  and  _411
REMARK  179  A    between atoms: _410  and  _413
REMARK  180  A    between atoms: _413  and  _414
REMARK  181  A    between atoms: _414  and  _415
REMARK  182  A    between atoms: _415  and  _416
REMARK  183  A    between atoms: _416  and  _417
REMARK  184  A    between atoms: _421  and  _423
REMARK  185  A    between atoms: _423  and  _424
REMARK  186  A    between atoms: _423  and  _426
REMARK  187  A    between atoms: _426  and  _427
REMARK  188  A    between atoms: _432  and  _434
REMARK  189  A    between atoms: _434  and  _435
REMARK  190  A    between atoms: _434  and  _437
REMARK  191  A    between atoms: _437  and  _438
REMARK  192  A    between atoms: _443  and  _445
REMARK  193  A    between atoms: _445  and  _446
REMARK  194  A    between atoms: _449  and  _451
REMARK  195  A    between atoms: _451  and  _452
REMARK  196  A    between atoms: _451  and  _454
REMARK  197  A    between atoms: _454  and  _455
REMARK  198  A    between atoms: _460  and  _462
REMARK  199  A    between atoms: _462  and  _463
REMARK  200  A    between atoms: _466  and  _468
REMARK  201  A    between atoms: _468  and  _469
REMARK  202  A    between atoms: _472  and  _474
REMARK  203  A    between atoms: _474  and  _475
REMARK  204  A    between atoms: _474  and  _477
REMARK  205  A    between atoms: _477  and  _478
REMARK  206  A    between atoms: _483  and  _485
REMARK  207  A    between atoms: _485  and  _486
REMARK  208  A    between atoms: _485  and  _488
REMARK  209  A    between atoms: _488  and  _489
REMARK  210  A    between atoms: _492  and  _494
REMARK  211  A    between atoms: _494  and  _495
REMARK  212  A    between atoms: _497  and  _499
REMARK  213  A    between atoms: _499  and  _500
REMARK  214  A    between atoms: _499  and  _502
REMARK  215  A    between atoms: _502  and  _503
REMARK  216  A    between atoms: _503  and  _504
REMARK  217  A    between atoms: _507  and  _509
REMARK  218  A    between atoms: _509  and  _510
REMARK  219  A    between atoms: _509  and  _512
REMARK  220  A    between atoms: _512  and  _513
REMARK  221  A    between atoms: _516  and  _518
REMARK  222  A    between atoms: _518  and  _519
REMARK  223  A    between atoms: _518  and  _521
REMARK  224  A    between atoms: _521  and  _522
REMARK  225  A    between atoms: _524  and  _526
REMARK  226  A    between atoms: _526  and  _527
REMARK  227  A    between atoms: _526  and  _529
REMARK  228  A    between atoms: _529  and  _530
REMARK  229  A    between atoms: _533  and  _535
REMARK  230  A    between atoms: _535  and  _536
REMARK  231  A    between atoms: _535  and  _538
REMARK  232  A    between atoms: _538  and  _539
REMARK  233  A    between atoms: _539  and  _540
REMARK  234  A    between atoms: _542  and  _544
REMARK  235  A    between atoms: _544  and  _545
REMARK  236  A    between atoms: _548  and  _550
REMARK  237  A    between atoms: _550  and  _551
REMARK  238  A    between atoms: _554  and  _556
REMARK  239  A    between atoms: _556  and  _557
REMARK  240  A    between atoms: _556  and  _559
REMARK  241  A    between atoms: _559  and  _560
REMARK  242  A    between atoms: _563  and  _565
REMARK  243  A    between atoms: _565  and  _566
REMARK  244  A    between atoms: _569  and  _571
REMARK  245  A    between atoms: _571  and  _572
REMARK                            x       y       z     vdW  Elec       q    Type
REMARK                         _______ _______ _______ _____ _____    ______ ____
ROOT
ATOM      1  O   HOH     1      82.976  -1.039  -6.443  0.00  0.00    +0.000 OA
ENDROOT
TORSDOF 0
REMARK  Name = ../refined-set-2016/3ccz/3ccz_pocket.pdb
REMARK  245 active torsions:
REMARK  status: ('A' for Active; 'I' for Inactive)
REMARK    1  A    between atoms: _1  and  _3
REMARK    2  A    between atoms: _3  and  _4
REMARK    3  A    between atoms: _3  and  _6
REMARK    4  A    between atoms: _6  and  _7
REMARK    5  A    between atoms: _7  and  _8
REMARK    6  A    between atoms: _11  and  _13
REMARK    7  A    between atoms: _13  and  _14
REMARK    8  A    between atoms: _13  and  _16
REMARK    9  A    between atoms: _16  and  _17
REMARK   10  A    between atoms: _20  and  _22
REMARK   11  A    between atoms: _22  and  _23
REMARK   12  A    between atoms: _22  and  _25
REMARK   13  A    between atoms: _25  and  _26
REMARK   14  A    between atoms: _26  and  _27
REMARK   15  A    between atoms: _27  and  _28
REMARK   16  A    between atoms: _37  and  _39
REMARK   17  A    between atoms: _39  and  _40
REMARK   18  A    between atoms: _43  and  _44
REMARK   19  A    between atoms: _49  and  _51
REMARK   20  A    between atoms: _51  and  _52
REMARK   21  A    between atoms: _51  and  _54
REMARK   22  A    between atoms: _54  and  _55
REMARK   23  A    between atoms: _55  and  _56
REMARK   24  A    between atoms: _58  and  _60
REMARK   25  A    between atoms: _60  and  _61
REMARK   26  A    between atoms: _60  and  _63
REMARK   27  A    between atoms: _63  and  _64
REMARK   28  A    between atoms: _64  and  _65
REMARK   29  A    between atoms: _67  and  _69
REMARK   30  A    between atoms: _69  and  _70
REMARK   31  A    between atoms: _69  and  _72
REMARK   32  A    between atoms: _72  and  _73
REMARK   33  A    between atoms: _78  and  _80
REMARK   34  A    between atoms: _80  and  _81
REMARK   35  A    between atoms: _80  and  _83
REMARK   36  A    between atoms: _83  and  _84
REMARK   37  A    between atoms: _84  and  _85
REMARK   38  A    between atoms: _87  and  _89
REMARK   39  A    between atoms: _89  and  _90
REMARK   40  A    between atoms: _89  and  _92
REMARK   41  A    between atoms: _92  and  _93
REMARK   42  A    between atoms: _96  and  _98
REMARK   43  A    between atoms: _98  and  _99
REMARK   44  A    between atoms: _98  and  _101
REMARK   45  A    between atoms: _101  and  _102
REMARK   46  A    between atoms: _104  and  _106
REMARK   47  A    between atoms: _106  and  _107
REMARK   48  A    between atoms: _106  and  _109
REMARK   49  A    between atoms: _109  and  _110
REMARK   50  A    between atoms: _110  and  _111
REMARK   51  A    between atoms: _111  and  _112
REMARK   52  A    between atoms: _112  and  _113
REMARK   53  A    between atoms: _117  and  _119
REMARK   54  A    between atoms: _119  and  _120
REMARK   55  A    between atoms: _119  and  _122
REMARK   56  A    between atoms: _122  and  _123
REMARK   57  A    between atoms: _126  and  _128
REMARK   58  A    between atoms: _128  and  _129
REMARK   59  A    between atoms: _128  and  _131
REMARK   60  A    between atoms: _131  and  _132
REMARK   61  A    between atoms: _132  and  _133
REMARK   62  A    between atoms: _136  and  _138
REMARK   63  A    between atoms: _138  and  _139
REMARK   64  A    between atoms: _142  and  _144
REMARK   65  A    between atoms: _144  and  _145
REMARK   66  A    between atoms: _144  and  _147
REMARK   67  A    between atoms: _150  and  _152
REMARK   68  A    between atoms: _152  and  _153
REMARK   69  A    between atoms: _152  and  _155
REMARK   70  A    between atoms: _155  and  _156
REMARK   71  A    between atoms: _158  and  _160
REMARK   72  A    between atoms: _160  and  _161
REMARK   73  A    between atoms: _163  and  _165
REMARK   74  A    between atoms: _165  and  _166
REMARK   75  A    between atoms: _165  and  _168
REMARK   76  A    between atoms: _168  and  _169
REMARK   77  A    between atoms: _174  and  _176
REMARK   78  A    between atoms: _176  and  _177
REMARK   79  A    between atoms: _176  and  _179
REMARK   80  A    between atoms: _179  and  _180
REMARK   81  A    between atoms: _185  and  _186
REMARK   82  A    between atoms: _188  and  _190
REMARK   83  A    between atoms: _190  and  _191
REMARK   84  A    between atoms: _190  and  _193
REMARK   85  A    between atoms: _195  and  _197
REMARK   86  A    between atoms: _197  and  _198
REMARK   87  A    between atoms: _197  and  _200
REMARK   88  A    between atoms: _200  and  _201
REMARK   89  A    between atoms: _204  and  _206
REMARK   90  A    between atoms: _206  and  _207
REMARK   91  A    between atoms: _206  and  _209
REMARK   92  A    between atoms: _209  and  _210
REMARK   93  A    between atoms: _213  and  _215
REMARK   94  A    between atoms: _215  and  _216
REMARK   95  A    between atoms: _215  and  _218
REMARK   96  A    between atoms: _218  and  _219
REMARK   97  A    between atoms: _219  and  _220
REMARK   98  A    between atoms: _220  and  _221
REMARK   99  A    between atoms: _221  and  _222
REMARK  100  A    between atoms: _226  and  _228
REMARK  101  A    between atoms: _228  and  _229
REMARK  102  A    between atoms: _228  and  _231
REMARK  103  A    between atoms: _231  and  _232
REMARK  104  A    between atoms: _232  and  _233
REMARK  105  A    between atoms: _233  and  _234
REMARK  106  A    between atoms: _234  and  _235
REMARK  107  A    between atoms: _239  and  _241
REMARK  108  A    between atoms: _241  and  _242
REMARK  109  A    between atoms: _241  and  _244
REMARK  110  A    between atoms: _244  and  _245
REMARK  111  A    between atoms: _245  and  _246
REMARK  112  A    between atoms: _246  and  _247
REMARK  113  A    between atoms: _256  and  _258
REMARK  114  A    between atoms: _258  and  _259
REMARK  115  A    between atoms: _258  and  _261
REMARK  116  A    between atoms: _261  and  _262
REMARK  117  A    between atoms: _265  and  _267
REMARK  118  A    between atoms: _267  and  _268
REMARK  119  A    between atoms: _271  and  _273
REMARK  120  A    between atoms: _273  and  _274
REMARK  121  A    between atoms: _273  and  _276
REMARK  122  A    between atoms: _276  and  _277
REMARK  123  A    between atoms: _277  and  _278
REMARK  124  A    between atoms: _283  and  _285
REMARK  125  A    between atoms: _285  and  _286
REMARK  126  A    between atoms: _285  and  _288
REMARK  127  A    between atoms: _288  and  _289
REMARK  128  A    between atoms: _289  and  _290
REMARK  129  A    between atoms: _293  and  _295
REMARK  130  A    between atoms: _295  and  _296
REMARK  131  A    between atoms: _298  and  _300
REMARK  132  A    between atoms: _300  and  _301
REMARK  133  A    between atoms: _300  and  _303
REMARK  134  A    between atoms: _305  and  _307
REMARK  135  A    between atoms: _307  and  _308
REMARK  136  A    between atoms: _307  and  _310
REMARK  137  A    between atoms: _310  and  _311
REMARK  138  A    between atoms: _314  and  _316
REMARK  139  A    between atoms: _316  and  _317
REMARK  140  A    between atoms: _316  and  _319
REMARK  141  A    between atoms: _322  and  _324
REMARK  142  A    between atoms: _324  and  _325
REMARK  143  A    between atoms: _328  and  _330
REMARK  144  A    between atoms: _330  and  _331
REMARK  145  A    between atoms: _330  and  _333
REMARK  146  A    between atoms: _333  and  _334
REMARK  147  A    between atoms: _336  and  _338
REMARK  148  A    between atoms: _338  and  _339
REMARK  149  A    between atoms: _338  and  _341
REMARK  150  A    between atoms: _341  and  _342
REMARK  151  A    between atoms: _345  and  _347
REMARK  152  A    between atoms: _347  and  _348
REMARK  153  A    between atoms: _347  and  _350
REMARK  154  A    between atoms: _350  and  _351
REMARK  155  A    between atoms: _356  and  _358
REMARK  156  A    between atoms: _358  and  _359
REMARK  157  A    between atoms: _358  and  _361
REMARK  158  A    between atoms: _361  and  _362
REMARK  159  A    between atoms: _362  and  _363
REMARK  160  A    between atoms: _363  and  _364
REMARK  161  A    between atoms: _373  and  _375
REMARK  162  A    between atoms: _375  and  _376
REMARK  163  A    between atoms: _378  and  _380
REMARK  164  A    between atoms: _380  and  _381
REMARK  165  A    between atoms: _380  and  _383
REMARK  166  A    between atoms: _386  and  _388
REMARK  167  A    between atoms: _388  and  _389
REMARK  168  A    between atoms: _388  and  _391
REMARK  169  A    between atoms: _391  and  _392
REMARK  170  A    between atoms: _395  and  _397
REMARK  171  A    between atoms: _397  and  _398
REMARK  172  A    between atoms: _397  and  _400
REMARK  173  A    between atoms: _400  and  _401
REMARK  174  A    between atoms: _401  and  _402
REMARK  175  A    between atoms: _402  and  _403
REMARK  176  A    between atoms: _403  and  _404
REMARK  177  A    between atoms: _408  and  _410
REMARK  178  A    between atoms: _410  and  _411
REMARK  179  A    between atoms: _410  and  _413
REMARK  180  A    between atoms: _413  and  _414
REMARK  181  A    between atoms: _414  and  _415
REMARK  182  A    between atoms: _415  and  _416
REMARK  183  A    between atoms: _416  and  _417
REMARK  184  A    between atoms: _421  and  _423
REMARK  185  A    between atoms: _423  and  _424
REMARK  186  A    between atoms: _423  and  _426
REMARK  187  A    between atoms: _426  and  _427
REMARK  188  A    between atoms: _432  and  _434
REMARK  189  A    between atoms: _434  and  _435
REMARK  190  A    between atoms: _434  and  _437
REMARK  191  A    between atoms: _437  and  _438
REMARK  192  A    between atoms: _443  and  _445
REMARK  193  A    between atoms: _445  and  _446
REMARK  194  A    between atoms: _449  and  _451
REMARK  195  A    between atoms: _451  and  _452
REMARK  196  A    between atoms: _451  and  _454
REMARK  197  A    between atoms: _454  and  _455
REMARK  198  A    between atoms: _460  and  _462
REMARK  199  A    between atoms: _462  and  _463
REMARK  200  A    between atoms: _466  and  _468
REMARK  201  A    between atoms: _468  and  _469
REMARK  202  A    between atoms: _472  and  _474
REMARK  203  A    between atoms: _474  and  _475
REMARK  204  A    between atoms: _474  and  _477
REMARK  205  A    between atoms: _477  and  _478
REMARK  206  A    between atoms: _483  and  _485
REMARK  207  A    between atoms: _485  and  _486
REMARK  208  A    between atoms: _485  and  _488
REMARK  209  A    between atoms: _488  and  _489
REMARK  210  A    between atoms: _492  and  _494
REMARK  211  A    between atoms: _494  and  _495
REMARK  212  A    between atoms: _497  and  _499
REMARK  213  A    between atoms: _499  and  _500
REMARK  214  A    between atoms: _499  and  _502
REMARK  215  A    between atoms: _502  and  _503
REMARK  216  A    between atoms: _503  and  _504
REMARK  217  A    between atoms: _507  and  _509
REMARK  218  A    between atoms: _509  and  _510
REMARK  219  A    between atoms: _509  and  _512
REMARK  220  A    between atoms: _512  and  _513
REMARK  221  A    between atoms: _516  and  _518
REMARK  222  A    between atoms: _518  and  _519
REMARK  223  A    between atoms: _518  and  _521
REMARK  224  A    between atoms: _521  and  _522
REMARK  225  A    between atoms: _524  and  _526
REMARK  226  A    between atoms: _526  and  _527
REMARK  227  A    between atoms: _526  and  _529
REMARK  228  A    between atoms: _529  and  _530
REMARK  229  A    between atoms: _533  and  _535
REMARK  230  A    between atoms: _535  and  _536
REMARK  231  A    between atoms: _535  and  _538
REMARK  232  A    between atoms: _538  and  _539
REMARK  233  A    between atoms: _539  and  _540
REMARK  234  A    between atoms: _542  and  _544
REMARK  235  A    between atoms: _544  and  _545
REMARK  236  A    between atoms: _548  and  _550
REMARK  237  A    between atoms: _550  and  _551
REMARK  238  A    between atoms: _554  and  _556
REMARK  239  A    between atoms: _556  and  _557
REMARK  240  A    between atoms: _556  and  _559
REMARK  241  A    between atoms: _559  and  _560
REMARK  242  A    between atoms: _563  and  _565
REMARK  243  A    between atoms: _565  and  _566
REMARK  244  A    between atoms: _569  and  _571
REMARK  245  A    between atoms: _571  and  _572
REMARK                            x       y       z     vdW  Elec       q    Type
REMARK                         _______ _______ _______ _____ _____    ______ ____
ROOT
ATOM      1  O   HOH     1      87.815  13.863 -13.053  0.00  0.00    +0.000 OA
ENDROOT
TORSDOF 0
REMARK  Name = ../refined-set-2016/3ccz/3ccz_pocket.pdb
REMARK  245 active torsions:
REMARK  status: ('A' for Active; 'I' for Inactive)
REMARK    1  A    between atoms: _1  and  _3
REMARK    2  A    between atoms: _3  and  _4
REMARK    3  A    between atoms: _3  and  _6
REMARK    4  A    between atoms: _6  and  _7
REMARK    5  A    between atoms: _7  and  _8
REMARK    6  A    between atoms: _11  and  _13
REMARK    7  A    between atoms: _13  and  _14
REMARK    8  A    between atoms: _13  and  _16
REMARK    9  A    between atoms: _16  and  _17
REMARK   10  A    between atoms: _20  and  _22
REMARK   11  A    between atoms: _22  and  _23
REMARK   12  A    between atoms: _22  and  _25
REMARK   13  A    between atoms: _25  and  _26
REMARK   14  A    between atoms: _26  and  _27
REMARK   15  A    between atoms: _27  and  _28
REMARK   16  A    between atoms: _37  and  _39
REMARK   17  A    between atoms: _39  and  _40
REMARK   18  A    between atoms: _43  and  _44
REMARK   19  A    between atoms: _49  and  _51
REMARK   20  A    between atoms: _51  and  _52
REMARK   21  A    between atoms: _51  and  _54
REMARK   22  A    between atoms: _54  and  _55
REMARK   23  A    between atoms: _55  and  _56
REMARK   24  A    between atoms: _58  and  _60
REMARK   25  A    between atoms: _60  and  _61
REMARK   26  A    between atoms: _60  and  _63
REMARK   27  A    between atoms: _63  and  _64
REMARK   28  A    between atoms: _64  and  _65
REMARK   29  A    between atoms: _67  and  _69
REMARK   30  A    between atoms: _69  and  _70
REMARK   31  A    between atoms: _69  and  _72
REMARK   32  A    between atoms: _72  and  _73
REMARK   33  A    between atoms: _78  and  _80
REMARK   34  A    between atoms: _80  and  _81
REMARK   35  A    between atoms: _80  and  _83
REMARK   36  A    between atoms: _83  and  _84
REMARK   37  A    between atoms: _84  and  _85
REMARK   38  A    between atoms: _87  and  _89
REMARK   39  A    between atoms: _89  and  _90
REMARK   40  A    between atoms: _89  and  _92
REMARK   41  A    between atoms: _92  and  _93
REMARK   42  A    between atoms: _96  and  _98
REMARK   43  A    between atoms: _98  and  _99
REMARK   44  A    between atoms: _98  and  _101
REMARK   45  A    between atoms: _101  and  _102
REMARK   46  A    between atoms: _104  and  _106
REMARK   47  A    between atoms: _106  and  _107
REMARK   48  A    between atoms: _106  and  _109
REMARK   49  A    between atoms: _109  and  _110
REMARK   50  A    between atoms: _110  and  _111
REMARK   51  A    between atoms: _111  and  _112
REMARK   52  A    between atoms: _112  and  _113
REMARK   53  A    between atoms: _117  and  _119
REMARK   54  A    between atoms: _119  and  _120
REMARK   55  A    between atoms: _119  and  _122
REMARK   56  A    between atoms: _122  and  _123
REMARK   57  A    between atoms: _126  and  _128
REMARK   58  A    between atoms: _128  and  _129
REMARK   59  A    between atoms: _128  and  _131
REMARK   60  A    between atoms: _131  and  _132
REMARK   61  A    between atoms: _132  and  _133
REMARK   62  A    between atoms: _136  and  _138
REMARK   63  A    between atoms: _138  and  _139
REMARK   64  A    between atoms: _142  and  _144
REMARK   65  A    between atoms: _144  and  _145
REMARK   66  A    between atoms: _144  and  _147
REMARK   67  A    between atoms: _150  and  _152
REMARK   68  A    between atoms: _152  and  _153
REMARK   69  A    between atoms: _152  and  _155
REMARK   70  A    between atoms: _155  and  _156
REMARK   71  A    between atoms: _158  and  _160
REMARK   72  A    between atoms: _160  and  _161
REMARK   73  A    between atoms: _163  and  _165
REMARK   74  A    between atoms: _165  and  _166
REMARK   75  A    between atoms: _165  and  _168
REMARK   76  A    between atoms: _168  and  _169
REMARK   77  A    between atoms: _174  and  _176
REMARK   78  A    between atoms: _176  and  _177
REMARK   79  A    between atoms: _176  and  _179
REMARK   80  A    between atoms: _179  and  _180
REMARK   81  A    between atoms: _185  and  _186
REMARK   82  A    between atoms: _188  and  _190
REMARK   83  A    between atoms: _190  and  _191
REMARK   84  A    between atoms: _190  and  _193
REMARK   85  A    between atoms: _195  and  _197
REMARK   86  A    between atoms: _197  and  _198
REMARK   87  A    between atoms: _197  and  _200
REMARK   88  A    between atoms: _200  and  _201
REMARK   89  A    between atoms: _204  and  _206
REMARK   90  A    between atoms: _206  and  _207
REMARK   91  A    between atoms: _206  and  _209
REMARK   92  A    between atoms: _209  and  _210
REMARK   93  A    between atoms: _213  and  _215
REMARK   94  A    between atoms: _215  and  _216
REMARK   95  A    between atoms: _215  and  _218
REMARK   96  A    between atoms: _218  and  _219
REMARK   97  A    between atoms: _219  and  _220
REMARK   98  A    between atoms: _220  and  _221
REMARK   99  A    between atoms: _221  and  _222
REMARK  100  A    between atoms: _226  and  _228
REMARK  101  A    between atoms: _228  and  _229
REMARK  102  A    between atoms: _228  and  _231
REMARK  103  A    between atoms: _231  and  _232
REMARK  104  A    between atoms: _232  and  _233
REMARK  105  A    between atoms: _233  and  _234
REMARK  106  A    between atoms: _234  and  _235
REMARK  107  A    between atoms: _239  and  _241
REMARK  108  A    between atoms: _241  and  _242
REMARK  109  A    between atoms: _241  and  _244
REMARK  110  A    between atoms: _244  and  _245
REMARK  111  A    between atoms: _245  and  _246
REMARK  112  A    between atoms: _246  and  _247
REMARK  113  A    between atoms: _256  and  _258
REMARK  114  A    between atoms: _258  and  _259
REMARK  115  A    between atoms: _258  and  _261
REMARK  116  A    between atoms: _261  and  _262
REMARK  117  A    between atoms: _265  and  _267
REMARK  118  A    between atoms: _267  and  _268
REMARK  119  A    between atoms: _271  and  _273
REMARK  120  A    between atoms: _273  and  _274
REMARK  121  A    between atoms: _273  and  _276
REMARK  122  A    between atoms: _276  and  _277
REMARK  123  A    between atoms: _277  and  _278
REMARK  124  A    between atoms: _283  and  _285
REMARK  125  A    between atoms: _285  and  _286
REMARK  126  A    between atoms: _285  and  _288
REMARK  127  A    between atoms: _288  and  _289
REMARK  128  A    between atoms: _289  and  _290
REMARK  129  A    between atoms: _293  and  _295
REMARK  130  A    between atoms: _295  and  _296
REMARK  131  A    between atoms: _298  and  _300
REMARK  132  A    between atoms: _300  and  _301
REMARK  133  A    between atoms: _300  and  _303
REMARK  134  A    between atoms: _305  and  _307
REMARK  135  A    between atoms: _307  and  _308
REMARK  136  A    between atoms: _307  and  _310
REMARK  137  A    between atoms: _310  and  _311
REMARK  138  A    between atoms: _314  and  _316
REMARK  139  A    between atoms: _316  and  _317
REMARK  140  A    between atoms: _316  and  _319
REMARK  141  A    between atoms: _322  and  _324
REMARK  142  A    between atoms: _324  and  _325
REMARK  143  A    between atoms: _328  and  _330
REMARK  144  A    between atoms: _330  and  _331
REMARK  145  A    between atoms: _330  and  _333
REMARK  146  A    between atoms: _333  and  _334
REMARK  147  A    between atoms: _336  and  _338
REMARK  148  A    between atoms: _338  and  _339
REMARK  149  A    between atoms: _338  and  _341
REMARK  150  A    between atoms: _341  and  _342
REMARK  151  A    between atoms: _345  and  _347
REMARK  152  A    between atoms: _347  and  _348
REMARK  153  A    between atoms: _347  and  _350
REMARK  154  A    between atoms: _350  and  _351
REMARK  155  A    between atoms: _356  and  _358
REMARK  156  A    between atoms: _358  and  _359
REMARK  157  A    between atoms: _358  and  _361
REMARK  158  A    between atoms: _361  and  _362
REMARK  159  A    between atoms: _362  and  _363
REMARK  160  A    between atoms: _363  and  _364
REMARK  161  A    between atoms: _373  and  _375
REMARK  162  A    between atoms: _375  and  _376
REMARK  163  A    between atoms: _378  and  _380
REMARK  164  A    between atoms: _380  and  _381
REMARK  165  A    between atoms: _380  and  _383
REMARK  166  A    between atoms: _386  and  _388
REMARK  167  A    between atoms: _388  and  _389
REMARK  168  A    between atoms: _388  and  _391
REMARK  169  A    between atoms: _391  and  _392
REMARK  170  A    between atoms: _395  and  _397
REMARK  171  A    between atoms: _397  and  _398
REMARK  172  A    between atoms: _397  and  _400
REMARK  173  A    between atoms: _400  and  _401
REMARK  174  A    between atoms: _401  and  _402
REMARK  175  A    between atoms: _402  and  _403
REMARK  176  A    between atoms: _403  and  _404
REMARK  177  A    between atoms: _408  and  _410
REMARK  178  A    between atoms: _410  and  _411
REMARK  179  A    between atoms: _410  and  _413
REMARK  180  A    between atoms: _413  and  _414
REMARK  181  A    between atoms: _414  and  _415
REMARK  182  A    between atoms: _415  and  _416
REMARK  183  A    between atoms: _416  and  _417
REMARK  184  A    between atoms: _421  and  _423
REMARK  185  A    between atoms: _423  and  _424
REMARK  186  A    between atoms: _423  and  _426
REMARK  187  A    between atoms: _426  and  _427
REMARK  188  A    between atoms: _432  and  _434
REMARK  189  A    between atoms: _434  and  _435
REMARK  190  A    between atoms: _434  and  _437
REMARK  191  A    between atoms: _437  and  _438
REMARK  192  A    between atoms: _443  and  _445
REMARK  193  A    between atoms: _445  and  _446
REMARK  194  A    between atoms: _449  and  _451
REMARK  195  A    between atoms: _451  and  _452
REMARK  196  A    between atoms: _451  and  _454
REMARK  197  A    between atoms: _454  and  _455
REMARK  198  A    between atoms: _460  and  _462
REMARK  199  A    between atoms: _462  and  _463
REMARK  200  A    between atoms: _466  and  _468
REMARK  201  A    between atoms: _468  and  _469
REMARK  202  A    between atoms: _472  and  _474
REMARK  203  A    between atoms: _474  and  _475
REMARK  204  A    between atoms: _474  and  _477
REMARK  205  A    between atoms: _477  and  _478
REMARK  206  A    between atoms: _483  and  _485
REMARK  207  A    between atoms: _485  and  _486
REMARK  208  A    between atoms: _485  and  _488
REMARK  209  A    between atoms: _488  and  _489
REMARK  210  A    between atoms: _492  and  _494
REMARK  211  A    between atoms: _494  and  _495
REMARK  212  A    between atoms: _497  and  _499
REMARK  213  A    between atoms: _499  and  _500
REMARK  214  A    between atoms: _499  and  _502
REMARK  215  A    between atoms: _502  and  _503
REMARK  216  A    between atoms: _503  and  _504
REMARK  217  A    between atoms: _507  and  _509
REMARK  218  A    between atoms: _509  and  _510
REMARK  219  A    between atoms: _509  and  _512
REMARK  220  A    between atoms: _512  and  _513
REMARK  221  A    between atoms: _516  and  _518
REMARK  222  A    between atoms: _518  and  _519
REMARK  223  A    between atoms: _518  and  _521
REMARK  224  A    between atoms: _521  and  _522
REMARK  225  A    between atoms: _524  and  _526
REMARK  226  A    between atoms: _526  and  _527
REMARK  227  A    between atoms: _526  and  _529
REMARK  228  A    between atoms: _529  and  _530
REMARK  229  A    between atoms: _533  and  _535
REMARK  230  A    between atoms: _535  and  _536
REMARK  231  A    between atoms: _535  and  _538
REMARK  232  A    between atoms: _538  and  _539
REMARK  233  A    between atoms: _539  and  _540
REMARK  234  A    between atoms: _542  and  _544
REMARK  235  A    between atoms: _544  and  _545
REMARK  236  A    between atoms: _548  and  _550
REMARK  237  A    between atoms: _550  and  _551
REMARK  238  A    between atoms: _554  and  _556
REMARK  239  A    between atoms: _556  and  _557
REMARK  240  A    between atoms: _556  and  _559
REMARK  241  A    between atoms: _559  and  _560
REMARK  242  A    between atoms: _563  and  _565
REMARK  243  A    between atoms: _565  and  _566
REMARK  244  A    between atoms: _569  and  _571
REMARK  245  A    between atoms: _571  and  _572
REMARK                            x       y       z     vdW  Elec       q    Type
REMARK                         _______ _______ _______ _____ _____    ______ ____
ROOT
ATOM      1  O   HOH     1      75.557   4.294  -9.499  0.00  0.00    +0.000 OA
ENDROOT
TORSDOF 0
REMARK  Name = ../refined-set-2016/3ccz/3ccz_pocket.pdb
REMARK  245 active torsions:
REMARK  status: ('A' for Active; 'I' for Inactive)
REMARK    1  A    between atoms: _1  and  _3
REMARK    2  A    between atoms: _3  and  _4
REMARK    3  A    between atoms: _3  and  _6
REMARK    4  A    between atoms: _6  and  _7
REMARK    5  A    between atoms: _7  and  _8
REMARK    6  A    between atoms: _11  and  _13
REMARK    7  A    between atoms: _13  and  _14
REMARK    8  A    between atoms: _13  and  _16
REMARK    9  A    between atoms: _16  and  _17
REMARK   10  A    between atoms: _20  and  _22
REMARK   11  A    between atoms: _22  and  _23
REMARK   12  A    between atoms: _22  and  _25
REMARK   13  A    between atoms: _25  and  _26
REMARK   14  A    between atoms: _26  and  _27
REMARK   15  A    between atoms: _27  and  _28
REMARK   16  A    between atoms: _37  and  _39
REMARK   17  A    between atoms: _39  and  _40
REMARK   18  A    between atoms: _43  and  _44
REMARK   19  A    between atoms: _49  and  _51
REMARK   20  A    between atoms: _51  and  _52
REMARK   21  A    between atoms: _51  and  _54
REMARK   22  A    between atoms: _54  and  _55
REMARK   23  A    between atoms: _55  and  _56
REMARK   24  A    between atoms: _58  and  _60
REMARK   25  A    between atoms: _60  and  _61
REMARK   26  A    between atoms: _60  and  _63
REMARK   27  A    between atoms: _63  and  _64
REMARK   28  A    between atoms: _64  and  _65
REMARK   29  A    between atoms: _67  and  _69
REMARK   30  A    between atoms: _69  and  _70
REMARK   31  A    between atoms: _69  and  _72
REMARK   32  A    between atoms: _72  and  _73
REMARK   33  A    between atoms: _78  and  _80
REMARK   34  A    between atoms: _80  and  _81
REMARK   35  A    between atoms: _80  and  _83
REMARK   36  A    between atoms: _83  and  _84
REMARK   37  A    between atoms: _84  and  _85
REMARK   38  A    between atoms: _87  and  _89
REMARK   39  A    between atoms: _89  and  _90
REMARK   40  A    between atoms: _89  and  _92
REMARK   41  A    between atoms: _92  and  _93
REMARK   42  A    between atoms: _96  and  _98
REMARK   43  A    between atoms: _98  and  _99
REMARK   44  A    between atoms: _98  and  _101
REMARK   45  A    between atoms: _101  and  _102
REMARK   46  A    between atoms: _104  and  _106
REMARK   47  A    between atoms: _106  and  _107
REMARK   48  A    between atoms: _106  and  _109
REMARK   49  A    between atoms: _109  and  _110
REMARK   50  A    between atoms: _110  and  _111
REMARK   51  A    between atoms: _111  and  _112
REMARK   52  A    between atoms: _112  and  _113
REMARK   53  A    between atoms: _117  and  _119
REMARK   54  A    between atoms: _119  and  _120
REMARK   55  A    between atoms: _119  and  _122
REMARK   56  A    between atoms: _122  and  _123
REMARK   57  A    between atoms: _126  and  _128
REMARK   58  A    between atoms: _128  and  _129
REMARK   59  A    between atoms: _128  and  _131
REMARK   60  A    between atoms: _131  and  _132
REMARK   61  A    between atoms: _132  and  _133
REMARK   62  A    between atoms: _136  and  _138
REMARK   63  A    between atoms: _138  and  _139
REMARK   64  A    between atoms: _142  and  _144
REMARK   65  A    between atoms: _144  and  _145
REMARK   66  A    between atoms: _144  and  _147
REMARK   67  A    between atoms: _150  and  _152
REMARK   68  A    between atoms: _152  and  _153
REMARK   69  A    between atoms: _152  and  _155
REMARK   70  A    between atoms: _155  and  _156
REMARK   71  A    between atoms: _158  and  _160
REMARK   72  A    between atoms: _160  and  _161
REMARK   73  A    between atoms: _163  and  _165
REMARK   74  A    between atoms: _165  and  _166
REMARK   75  A    between atoms: _165  and  _168
REMARK   76  A    between atoms: _168  and  _169
REMARK   77  A    between atoms: _174  and  _176
REMARK   78  A    between atoms: _176  and  _177
REMARK   79  A    between atoms: _176  and  _179
REMARK   80  A    between atoms: _179  and  _180
REMARK   81  A    between atoms: _185  and  _186
REMARK   82  A    between atoms: _188  and  _190
REMARK   83  A    between atoms: _190  and  _191
REMARK   84  A    between atoms: _190  and  _193
REMARK   85  A    between atoms: _195  and  _197
REMARK   86  A    between atoms: _197  and  _198
REMARK   87  A    between atoms: _197  and  _200
REMARK   88  A    between atoms: _200  and  _201
REMARK   89  A    between atoms: _204  and  _206
REMARK   90  A    between atoms: _206  and  _207
REMARK   91  A    between atoms: _206  and  _209
REMARK   92  A    between atoms: _209  and  _210
REMARK   93  A    between atoms: _213  and  _215
REMARK   94  A    between atoms: _215  and  _216
REMARK   95  A    between atoms: _215  and  _218
REMARK   96  A    between atoms: _218  and  _219
REMARK   97  A    between atoms: _219  and  _220
REMARK   98  A    between atoms: _220  and  _221
REMARK   99  A    between atoms: _221  and  _222
REMARK  100  A    between atoms: _226  and  _228
REMARK  101  A    between atoms: _228  and  _229
REMARK  102  A    between atoms: _228  and  _231
REMARK  103  A    between atoms: _231  and  _232
REMARK  104  A    between atoms: _232  and  _233
REMARK  105  A    between atoms: _233  and  _234
REMARK  106  A    between atoms: _234  and  _235
REMARK  107  A    between atoms: _239  and  _241
REMARK  108  A    between atoms: _241  and  _242
REMARK  109  A    between atoms: _241  and  _244
REMARK  110  A    between atoms: _244  and  _245
REMARK  111  A    between atoms: _245  and  _246
REMARK  112  A    between atoms: _246  and  _247
REMARK  113  A    between atoms: _256  and  _258
REMARK  114  A    between atoms: _258  and  _259
REMARK  115  A    between atoms: _258  and  _261
REMARK  116  A    between atoms: _261  and  _262
REMARK  117  A    between atoms: _265  and  _267
REMARK  118  A    between atoms: _267  and  _268
REMARK  119  A    between atoms: _271  and  _273
REMARK  120  A    between atoms: _273  and  _274
REMARK  121  A    between atoms: _273  and  _276
REMARK  122  A    between atoms: _276  and  _277
REMARK  123  A    between atoms: _277  and  _278
REMARK  124  A    between atoms: _283  and  _285
REMARK  125  A    between atoms: _285  and  _286
REMARK  126  A    between atoms: _285  and  _288
REMARK  127  A    between atoms: _288  and  _289
REMARK  128  A    between atoms: _289  and  _290
REMARK  129  A    between atoms: _293  and  _295
REMARK  130  A    between atoms: _295  and  _296
REMARK  131  A    between atoms: _298  and  _300
REMARK  132  A    between atoms: _300  and  _301
REMARK  133  A    between atoms: _300  and  _303
REMARK  134  A    between atoms: _305  and  _307
REMARK  135  A    between atoms: _307  and  _308
REMARK  136  A    between atoms: _307  and  _310
REMARK  137  A    between atoms: _310  and  _311
REMARK  138  A    between atoms: _314  and  _316
REMARK  139  A    between atoms: _316  and  _317
REMARK  140  A    between atoms: _316  and  _319
REMARK  141  A    between atoms: _322  and  _324
REMARK  142  A    between atoms: _324  and  _325
REMARK  143  A    between atoms: _328  and  _330
REMARK  144  A    between atoms: _330  and  _331
REMARK  145  A    between atoms: _330  and  _333
REMARK  146  A    between atoms: _333  and  _334
REMARK  147  A    between atoms: _336  and  _338
REMARK  148  A    between atoms: _338  and  _339
REMARK  149  A    between atoms: _338  and  _341
REMARK  150  A    between atoms: _341  and  _342
REMARK  151  A    between atoms: _345  and  _347
REMARK  152  A    between atoms: _347  and  _348
REMARK  153  A    between atoms: _347  and  _350
REMARK  154  A    between atoms: _350  and  _351
REMARK  155  A    between atoms: _356  and  _358
REMARK  156  A    between atoms: _358  and  _359
REMARK  157  A    between atoms: _358  and  _361
REMARK  158  A    between atoms: _361  and  _362
REMARK  159  A    between atoms: _362  and  _363
REMARK  160  A    between atoms: _363  and  _364
REMARK  161  A    between atoms: _373  and  _375
REMARK  162  A    between atoms: _375  and  _376
REMARK  163  A    between atoms: _378  and  _380
REMARK  164  A    between atoms: _380  and  _381
REMARK  165  A    between atoms: _380  and  _383
REMARK  166  A    between atoms: _386  and  _388
REMARK  167  A    between atoms: _388  and  _389
REMARK  168  A    between atoms: _388  and  _391
REMARK  169  A    between atoms: _391  and  _392
REMARK  170  A    between atoms: _395  and  _397
REMARK  171  A    between atoms: _397  and  _398
REMARK  172  A    between atoms: _397  and  _400
REMARK  173  A    between atoms: _400  and  _401
REMARK  174  A    between atoms: _401  and  _402
REMARK  175  A    between atoms: _402  and  _403
REMARK  176  A    between atoms: _403  and  _404
REMARK  177  A    between atoms: _408  and  _410
REMARK  178  A    between atoms: _410  and  _411
REMARK  179  A    between atoms: _410  and  _413
REMARK  180  A    between atoms: _413  and  _414
REMARK  181  A    between atoms: _414  and  _415
REMARK  182  A    between atoms: _415  and  _416
REMARK  183  A    between atoms: _416  and  _417
REMARK  184  A    between atoms: _421  and  _423
REMARK  185  A    between atoms: _423  and  _424
REMARK  186  A    between atoms: _423  and  _426
REMARK  187  A    between atoms: _426  and  _427
REMARK  188  A    between atoms: _432  and  _434
REMARK  189  A    between atoms: _434  and  _435
REMARK  190  A    between atoms: _434  and  _437
REMARK  191  A    between atoms: _437  and  _438
REMARK  192  A    between atoms: _443  and  _445
REMARK  193  A    between atoms: _445  and  _446
REMARK  194  A    between atoms: _449  and  _451
REMARK  195  A    between atoms: _451  and  _452
REMARK  196  A    between atoms: _451  and  _454
REMARK  197  A    between atoms: _454  and  _455
REMARK  198  A    between atoms: _460  and  _462
REMARK  199  A    between atoms: _462  and  _463
REMARK  200  A    between atoms: _466  and  _468
REMARK  201  A    between atoms: _468  and  _469
REMARK  202  A    between atoms: _472  and  _474
REMARK  203  A    between atoms: _474  and  _475
REMARK  204  A    between atoms: _474  and  _477
REMARK  205  A    between atoms: _477  and  _478
REMARK  206  A    between atoms: _483  and  _485
REMARK  207  A    between atoms: _485  and  _486
REMARK  208  A    between atoms: _485  and  _488
REMARK  209  A    between atoms: _488  and  _489
REMARK  210  A    between atoms: _492  and  _494
REMARK  211  A    between atoms: _494  and  _495
REMARK  212  A    between atoms: _497  and  _499
REMARK  213  A    between atoms: _499  and  _500
REMARK  214  A    between atoms: _499  and  _502
REMARK  215  A    between atoms: _502  and  _503
REMARK  216  A    between atoms: _503  and  _504
REMARK  217  A    between atoms: _507  and  _509
REMARK  218  A    between atoms: _509  and  _510
REMARK  219  A    between atoms: _509  and  _512
REMARK  220  A    between atoms: _512  and  _513
REMARK  221  A    between atoms: _516  and  _518
REMARK  222  A    between atoms: _518  and  _519
REMARK  223  A    between atoms: _518  and  _521
REMARK  224  A    between atoms: _521  and  _522
REMARK  225  A    between atoms: _524  and  _526
REMARK  226  A    between atoms: _526  and  _527
REMARK  227  A    between atoms: _526  and  _529
REMARK  228  A    between atoms: _529  and  _530
REMARK  229  A    between atoms: _533  and  _535
REMARK  230  A    between atoms: _535  and  _536
REMARK  231  A    between atoms: _535  and  _538
REMARK  232  A    between atoms: _538  and  _539
REMARK  233  A    between atoms: _539  and  _540
REMARK  234  A    between atoms: _542  and  _544
REMARK  235  A    between atoms: _544  and  _545
REMARK  236  A    between atoms: _548  and  _550
REMARK  237  A    between atoms: _550  and  _551
REMARK  238  A    between atoms: _554  and  _556
REMARK  239  A    between atoms: _556  and  _557
REMARK  240  A    between atoms: _556  and  _559
REMARK  241  A    between atoms: _559  and  _560
REMARK  242  A    between atoms: _563  and  _565
REMARK  243  A    between atoms: _565  and  _566
REMARK  244  A    between atoms: _569  and  _571
REMARK  245  A    between atoms: _571  and  _572
REMARK                            x       y       z     vdW  Elec       q    Type
REMARK                         _______ _______ _______ _____ _____    ______ ____
ROOT
ATOM      1  O   HOH     1      84.544  11.555 -12.158  0.00  0.00    +0.000 OA
ENDROOT
TORSDOF 0
REMARK  Name = ../refined-set-2016/3ccz/3ccz_pocket.pdb
REMARK  245 active torsions:
REMARK  status: ('A' for Active; 'I' for Inactive)
REMARK    1  A    between atoms: _1  and  _3
REMARK    2  A    between atoms: _3  and  _4
REMARK    3  A    between atoms: _3  and  _6
REMARK    4  A    between atoms: _6  and  _7
REMARK    5  A    between atoms: _7  and  _8
REMARK    6  A    between atoms: _11  and  _13
REMARK    7  A    between atoms: _13  and  _14
REMARK    8  A    between atoms: _13  and  _16
REMARK    9  A    between atoms: _16  and  _17
REMARK   10  A    between atoms: _20  and  _22
REMARK   11  A    between atoms: _22  and  _23
REMARK   12  A    between atoms: _22  and  _25
REMARK   13  A    between atoms: _25  and  _26
REMARK   14  A    between atoms: _26  and  _27
REMARK   15  A    between atoms: _27  and  _28
REMARK   16  A    between atoms: _37  and  _39
REMARK   17  A    between atoms: _39  and  _40
REMARK   18  A    between atoms: _43  and  _44
REMARK   19  A    between atoms: _49  and  _51
REMARK   20  A    between atoms: _51  and  _52
REMARK   21  A    between atoms: _51  and  _54
REMARK   22  A    between atoms: _54  and  _55
REMARK   23  A    between atoms: _55  and  _56
REMARK   24  A    between atoms: _58  and  _60
REMARK   25  A    between atoms: _60  and  _61
REMARK   26  A    between atoms: _60  and  _63
REMARK   27  A    between atoms: _63  and  _64
REMARK   28  A    between atoms: _64  and  _65
REMARK   29  A    between atoms: _67  and  _69
REMARK   30  A    between atoms: _69  and  _70
REMARK   31  A    between atoms: _69  and  _72
REMARK   32  A    between atoms: _72  and  _73
REMARK   33  A    between atoms: _78  and  _80
REMARK   34  A    between atoms: _80  and  _81
REMARK   35  A    between atoms: _80  and  _83
REMARK   36  A    between atoms: _83  and  _84
REMARK   37  A    between atoms: _84  and  _85
REMARK   38  A    between atoms: _87  and  _89
REMARK   39  A    between atoms: _89  and  _90
REMARK   40  A    between atoms: _89  and  _92
REMARK   41  A    between atoms: _92  and  _93
REMARK   42  A    between atoms: _96  and  _98
REMARK   43  A    between atoms: _98  and  _99
REMARK   44  A    between atoms: _98  and  _101
REMARK   45  A    between atoms: _101  and  _102
REMARK   46  A    between atoms: _104  and  _106
REMARK   47  A    between atoms: _106  and  _107
REMARK   48  A    between atoms: _106  and  _109
REMARK   49  A    between atoms: _109  and  _110
REMARK   50  A    between atoms: _110  and  _111
REMARK   51  A    between atoms: _111  and  _112
REMARK   52  A    between atoms: _112  and  _113
REMARK   53  A    between atoms: _117  and  _119
REMARK   54  A    between atoms: _119  and  _120
REMARK   55  A    between atoms: _119  and  _122
REMARK   56  A    between atoms: _122  and  _123
REMARK   57  A    between atoms: _126  and  _128
REMARK   58  A    between atoms: _128  and  _129
REMARK   59  A    between atoms: _128  and  _131
REMARK   60  A    between atoms: _131  and  _132
REMARK   61  A    between atoms: _132  and  _133
REMARK   62  A    between atoms: _136  and  _138
REMARK   63  A    between atoms: _138  and  _139
REMARK   64  A    between atoms: _142  and  _144
REMARK   65  A    between atoms: _144  and  _145
REMARK   66  A    between atoms: _144  and  _147
REMARK   67  A    between atoms: _150  and  _152
REMARK   68  A    between atoms: _152  and  _153
REMARK   69  A    between atoms: _152  and  _155
REMARK   70  A    between atoms: _155  and  _156
REMARK   71  A    between atoms: _158  and  _160
REMARK   72  A    between atoms: _160  and  _161
REMARK   73  A    between atoms: _163  and  _165
REMARK   74  A    between atoms: _165  and  _166
REMARK   75  A    between atoms: _165  and  _168
REMARK   76  A    between atoms: _168  and  _169
REMARK   77  A    between atoms: _174  and  _176
REMARK   78  A    between atoms: _176  and  _177
REMARK   79  A    between atoms: _176  and  _179
REMARK   80  A    between atoms: _179  and  _180
REMARK   81  A    between atoms: _185  and  _186
REMARK   82  A    between atoms: _188  and  _190
REMARK   83  A    between atoms: _190  and  _191
REMARK   84  A    between atoms: _190  and  _193
REMARK   85  A    between atoms: _195  and  _197
REMARK   86  A    between atoms: _197  and  _198
REMARK   87  A    between atoms: _197  and  _200
REMARK   88  A    between atoms: _200  and  _201
REMARK   89  A    between atoms: _204  and  _206
REMARK   90  A    between atoms: _206  and  _207
REMARK   91  A    between atoms: _206  and  _209
REMARK   92  A    between atoms: _209  and  _210
REMARK   93  A    between atoms: _213  and  _215
REMARK   94  A    between atoms: _215  and  _216
REMARK   95  A    between atoms: _215  and  _218
REMARK   96  A    between atoms: _218  and  _219
REMARK   97  A    between atoms: _219  and  _220
REMARK   98  A    between atoms: _220  and  _221
REMARK   99  A    between atoms: _221  and  _222
REMARK  100  A    between atoms: _226  and  _228
REMARK  101  A    between atoms: _228  and  _229
REMARK  102  A    between atoms: _228  and  _231
REMARK  103  A    between atoms: _231  and  _232
REMARK  104  A    between atoms: _232  and  _233
REMARK  105  A    between atoms: _233  and  _234
REMARK  106  A    between atoms: _234  and  _235
REMARK  107  A    between atoms: _239  and  _241
REMARK  108  A    between atoms: _241  and  _242
REMARK  109  A    between atoms: _241  and  _244
REMARK  110  A    between atoms: _244  and  _245
REMARK  111  A    between atoms: _245  and  _246
REMARK  112  A    between atoms: _246  and  _247
REMARK  113  A    between atoms: _256  and  _258
REMARK  114  A    between atoms: _258  and  _259
REMARK  115  A    between atoms: _258  and  _261
REMARK  116  A    between atoms: _261  and  _262
REMARK  117  A    between atoms: _265  and  _267
REMARK  118  A    between atoms: _267  and  _268
REMARK  119  A    between atoms: _271  and  _273
REMARK  120  A    between atoms: _273  and  _274
REMARK  121  A    between atoms: _273  and  _276
REMARK  122  A    between atoms: _276  and  _277
REMARK  123  A    between atoms: _277  and  _278
REMARK  124  A    between atoms: _283  and  _285
REMARK  125  A    between atoms: _285  and  _286
REMARK  126  A    between atoms: _285  and  _288
REMARK  127  A    between atoms: _288  and  _289
REMARK  128  A    between atoms: _289  and  _290
REMARK  129  A    between atoms: _293  and  _295
REMARK  130  A    between atoms: _295  and  _296
REMARK  131  A    between atoms: _298  and  _300
REMARK  132  A    between atoms: _300  and  _301
REMARK  133  A    between atoms: _300  and  _303
REMARK  134  A    between atoms: _305  and  _307
REMARK  135  A    between atoms: _307  and  _308
REMARK  136  A    between atoms: _307  and  _310
REMARK  137  A    between atoms: _310  and  _311
REMARK  138  A    between atoms: _314  and  _316
REMARK  139  A    between atoms: _316  and  _317
REMARK  140  A    between atoms: _316  and  _319
REMARK  141  A    between atoms: _322  and  _324
REMARK  142  A    between atoms: _324  and  _325
REMARK  143  A    between atoms: _328  and  _330
REMARK  144  A    between atoms: _330  and  _331
REMARK  145  A    between atoms: _330  and  _333
REMARK  146  A    between atoms: _333  and  _334
REMARK  147  A    between atoms: _336  and  _338
REMARK  148  A    between atoms: _338  and  _339
REMARK  149  A    between atoms: _338  and  _341
REMARK  150  A    between atoms: _341  and  _342
REMARK  151  A    between atoms: _345  and  _347
REMARK  152  A    between atoms: _347  and  _348
REMARK  153  A    between atoms: _347  and  _350
REMARK  154  A    between atoms: _350  and  _351
REMARK  155  A    between atoms: _356  and  _358
REMARK  156  A    between atoms: _358  and  _359
REMARK  157  A    between atoms: _358  and  _361
REMARK  158  A    between atoms: _361  and  _362
REMARK  159  A    between atoms: _362  and  _363
REMARK  160  A    between atoms: _363  and  _364
REMARK  161  A    between atoms: _373  and  _375
REMARK  162  A    between atoms: _375  and  _376
REMARK  163  A    between atoms: _378  and  _380
REMARK  164  A    between atoms: _380  and  _381
REMARK  165  A    between atoms: _380  and  _383
REMARK  166  A    between atoms: _386  and  _388
REMARK  167  A    between atoms: _388  and  _389
REMARK  168  A    between atoms: _388  and  _391
REMARK  169  A    between atoms: _391  and  _392
REMARK  170  A    between atoms: _395  and  _397
REMARK  171  A    between atoms: _397  and  _398
REMARK  172  A    between atoms: _397  and  _400
REMARK  173  A    between atoms: _400  and  _401
REMARK  174  A    between atoms: _401  and  _402
REMARK  175  A    between atoms: _402  and  _403
REMARK  176  A    between atoms: _403  and  _404
REMARK  177  A    between atoms: _408  and  _410
REMARK  178  A    between atoms: _410  and  _411
REMARK  179  A    between atoms: _410  and  _413
REMARK  180  A    between atoms: _413  and  _414
REMARK  181  A    between atoms: _414  and  _415
REMARK  182  A    between atoms: _415  and  _416
REMARK  183  A    between atoms: _416  and  _417
REMARK  184  A    between atoms: _421  and  _423
REMARK  185  A    between atoms: _423  and  _424
REMARK  186  A    between atoms: _423  and  _426
REMARK  187  A    between atoms: _426  and  _427
REMARK  188  A    between atoms: _432  and  _434
REMARK  189  A    between atoms: _434  and  _435
REMARK  190  A    between atoms: _434  and  _437
REMARK  191  A    between atoms: _437  and  _438
REMARK  192  A    between atoms: _443  and  _445
REMARK  193  A    between atoms: _445  and  _446
REMARK  194  A    between atoms: _449  and  _451
REMARK  195  A    between atoms: _451  and  _452
REMARK  196  A    between atoms: _451  and  _454
REMARK  197  A    between atoms: _454  and  _455
REMARK  198  A    between atoms: _460  and  _462
REMARK  199  A    between atoms: _462  and  _463
REMARK  200  A    between atoms: _466  and  _468
REMARK  201  A    between atoms: _468  and  _469
REMARK  202  A    between atoms: _472  and  _474
REMARK  203  A    between atoms: _474  and  _475
REMARK  204  A    between atoms: _474  and  _477
REMARK  205  A    between atoms: _477  and  _478
REMARK  206  A    between atoms: _483  and  _485
REMARK  207  A    between atoms: _485  and  _486
REMARK  208  A    between atoms: _485  and  _488
REMARK  209  A    between atoms: _488  and  _489
REMARK  210  A    between atoms: _492  and  _494
REMARK  211  A    between atoms: _494  and  _495
REMARK  212  A    between atoms: _497  and  _499
REMARK  213  A    between atoms: _499  and  _500
REMARK  214  A    between atoms: _499  and  _502
REMARK  215  A    between atoms: _502  and  _503
REMARK  216  A    between atoms: _503  and  _504
REMARK  217  A    between atoms: _507  and  _509
REMARK  218  A    between atoms: _509  and  _510
REMARK  219  A    between atoms: _509  and  _512
REMARK  220  A    between atoms: _512  and  _513
REMARK  221  A    between atoms: _516  and  _518
REMARK  222  A    between atoms: _518  and  _519
REMARK  223  A    between atoms: _518  and  _521
REMARK  224  A    between atoms: _521  and  _522
REMARK  225  A    between atoms: _524  and  _526
REMARK  226  A    between atoms: _526  and  _527
REMARK  227  A    between atoms: _526  and  _529
REMARK  228  A    between atoms: _529  and  _530
REMARK  229  A    between atoms: _533  and  _535
REMARK  230  A    between atoms: _535  and  _536
REMARK  231  A    between atoms: _535  and  _538
REMARK  232  A    between atoms: _538  and  _539
REMARK  233  A    between atoms: _539  and  _540
REMARK  234  A    between atoms: _542  and  _544
REMARK  235  A    between atoms: _544  and  _545
REMARK  236  A    between atoms: _548  and  _550
REMARK  237  A    between atoms: _550  and  _551
REMARK  238  A    between atoms: _554  and  _556
REMARK  239  A    between atoms: _556  and  _557
REMARK  240  A    between atoms: _556  and  _559
REMARK  241  A    between atoms: _559  and  _560
REMARK  242  A    between atoms: _563  and  _565
REMARK  243  A    between atoms: _565  and  _566
REMARK  244  A    between atoms: _569  and  _571
REMARK  245  A    between atoms: _571  and  _572
REMARK                            x       y       z     vdW  Elec       q    Type
REMARK                         _______ _______ _______ _____ _____    ______ ____
ROOT
ATOM      1  O   HOH     1      84.704   6.790 -12.580  0.00  0.00    +0.000 OA
ENDROOT
TORSDOF 0
REMARK  Name = ../refined-set-2016/3ccz/3ccz_pocket.pdb
REMARK  245 active torsions:
REMARK  status: ('A' for Active; 'I' for Inactive)
REMARK    1  A    between atoms: _1  and  _3
REMARK    2  A    between atoms: _3  and  _4
REMARK    3  A    between atoms: _3  and  _6
REMARK    4  A    between atoms: _6  and  _7
REMARK    5  A    between atoms: _7  and  _8
REMARK    6  A    between atoms: _11  and  _13
REMARK    7  A    between atoms: _13  and  _14
REMARK    8  A    between atoms: _13  and  _16
REMARK    9  A    between atoms: _16  and  _17
REMARK   10  A    between atoms: _20  and  _22
REMARK   11  A    between atoms: _22  and  _23
REMARK   12  A    between atoms: _22  and  _25
REMARK   13  A    between atoms: _25  and  _26
REMARK   14  A    between atoms: _26  and  _27
REMARK   15  A    between atoms: _27  and  _28
REMARK   16  A    between atoms: _37  and  _39
REMARK   17  A    between atoms: _39  and  _40
REMARK   18  A    between atoms: _43  and  _44
REMARK   19  A    between atoms: _49  and  _51
REMARK   20  A    between atoms: _51  and  _52
REMARK   21  A    between atoms: _51  and  _54
REMARK   22  A    between atoms: _54  and  _55
REMARK   23  A    between atoms: _55  and  _56
REMARK   24  A    between atoms: _58  and  _60
REMARK   25  A    between atoms: _60  and  _61
REMARK   26  A    between atoms: _60  and  _63
REMARK   27  A    between atoms: _63  and  _64
REMARK   28  A    between atoms: _64  and  _65
REMARK   29  A    between atoms: _67  and  _69
REMARK   30  A    between atoms: _69  and  _70
REMARK   31  A    between atoms: _69  and  _72
REMARK   32  A    between atoms: _72  and  _73
REMARK   33  A    between atoms: _78  and  _80
REMARK   34  A    between atoms: _80  and  _81
REMARK   35  A    between atoms: _80  and  _83
REMARK   36  A    between atoms: _83  and  _84
REMARK   37  A    between atoms: _84  and  _85
REMARK   38  A    between atoms: _87  and  _89
REMARK   39  A    between atoms: _89  and  _90
REMARK   40  A    between atoms: _89  and  _92
REMARK   41  A    between atoms: _92  and  _93
REMARK   42  A    between atoms: _96  and  _98
REMARK   43  A    between atoms: _98  and  _99
REMARK   44  A    between atoms: _98  and  _101
REMARK   45  A    between atoms: _101  and  _102
REMARK   46  A    between atoms: _104  and  _106
REMARK   47  A    between atoms: _106  and  _107
REMARK   48  A    between atoms: _106  and  _109
REMARK   49  A    between atoms: _109  and  _110
REMARK   50  A    between atoms: _110  and  _111
REMARK   51  A    between atoms: _111  and  _112
REMARK   52  A    between atoms: _112  and  _113
REMARK   53  A    between atoms: _117  and  _119
REMARK   54  A    between atoms: _119  and  _120
REMARK   55  A    between atoms: _119  and  _122
REMARK   56  A    between atoms: _122  and  _123
REMARK   57  A    between atoms: _126  and  _128
REMARK   58  A    between atoms: _128  and  _129
REMARK   59  A    between atoms: _128  and  _131
REMARK   60  A    between atoms: _131  and  _132
REMARK   61  A    between atoms: _132  and  _133
REMARK   62  A    between atoms: _136  and  _138
REMARK   63  A    between atoms: _138  and  _139
REMARK   64  A    between atoms: _142  and  _144
REMARK   65  A    between atoms: _144  and  _145
REMARK   66  A    between atoms: _144  and  _147
REMARK   67  A    between atoms: _150  and  _152
REMARK   68  A    between atoms: _152  and  _153
REMARK   69  A    between atoms: _152  and  _155
REMARK   70  A    between atoms: _155  and  _156
REMARK   71  A    between atoms: _158  and  _160
REMARK   72  A    between atoms: _160  and  _161
REMARK   73  A    between atoms: _163  and  _165
REMARK   74  A    between atoms: _165  and  _166
REMARK   75  A    between atoms: _165  and  _168
REMARK   76  A    between atoms: _168  and  _169
REMARK   77  A    between atoms: _174  and  _176
REMARK   78  A    between atoms: _176  and  _177
REMARK   79  A    between atoms: _176  and  _179
REMARK   80  A    between atoms: _179  and  _180
REMARK   81  A    between atoms: _185  and  _186
REMARK   82  A    between atoms: _188  and  _190
REMARK   83  A    between atoms: _190  and  _191
REMARK   84  A    between atoms: _190  and  _193
REMARK   85  A    between atoms: _195  and  _197
REMARK   86  A    between atoms: _197  and  _198
REMARK   87  A    between atoms: _197  and  _200
REMARK   88  A    between atoms: _200  and  _201
REMARK   89  A    between atoms: _204  and  _206
REMARK   90  A    between atoms: _206  and  _207
REMARK   91  A    between atoms: _206  and  _209
REMARK   92  A    between atoms: _209  and  _210
REMARK   93  A    between atoms: _213  and  _215
REMARK   94  A    between atoms: _215  and  _216
REMARK   95  A    between atoms: _215  and  _218
REMARK   96  A    between atoms: _218  and  _219
REMARK   97  A    between atoms: _219  and  _220
REMARK   98  A    between atoms: _220  and  _221
REMARK   99  A    between atoms: _221  and  _222
REMARK  100  A    between atoms: _226  and  _228
REMARK  101  A    between atoms: _228  and  _229
REMARK  102  A    between atoms: _228  and  _231
REMARK  103  A    between atoms: _231  and  _232
REMARK  104  A    between atoms: _232  and  _233
REMARK  105  A    between atoms: _233  and  _234
REMARK  106  A    between atoms: _234  and  _235
REMARK  107  A    between atoms: _239  and  _241
REMARK  108  A    between atoms: _241  and  _242
REMARK  109  A    between atoms: _241  and  _244
REMARK  110  A    between atoms: _244  and  _245
REMARK  111  A    between atoms: _245  and  _246
REMARK  112  A    between atoms: _246  and  _247
REMARK  113  A    between atoms: _256  and  _258
REMARK  114  A    between atoms: _258  and  _259
REMARK  115  A    between atoms: _258  and  _261
REMARK  116  A    between atoms: _261  and  _262
REMARK  117  A    between atoms: _265  and  _267
REMARK  118  A    between atoms: _267  and  _268
REMARK  119  A    between atoms: _271  and  _273
REMARK  120  A    between atoms: _273  and  _274
REMARK  121  A    between atoms: _273  and  _276
REMARK  122  A    between atoms: _276  and  _277
REMARK  123  A    between atoms: _277  and  _278
REMARK  124  A    between atoms: _283  and  _285
REMARK  125  A    between atoms: _285  and  _286
REMARK  126  A    between atoms: _285  and  _288
REMARK  127  A    between atoms: _288  and  _289
REMARK  128  A    between atoms: _289  and  _290
REMARK  129  A    between atoms: _293  and  _295
REMARK  130  A    between atoms: _295  and  _296
REMARK  131  A    between atoms: _298  and  _300
REMARK  132  A    between atoms: _300  and  _301
REMARK  133  A    between atoms: _300  and  _303
REMARK  134  A    between atoms: _305  and  _307
REMARK  135  A    between atoms: _307  and  _308
REMARK  136  A    between atoms: _307  and  _310
REMARK  137  A    between atoms: _310  and  _311
REMARK  138  A    between atoms: _314  and  _316
REMARK  139  A    between atoms: _316  and  _317
REMARK  140  A    between atoms: _316  and  _319
REMARK  141  A    between atoms: _322  and  _324
REMARK  142  A    between atoms: _324  and  _325
REMARK  143  A    between atoms: _328  and  _330
REMARK  144  A    between atoms: _330  and  _331
REMARK  145  A    between atoms: _330  and  _333
REMARK  146  A    between atoms: _333  and  _334
REMARK  147  A    between atoms: _336  and  _338
REMARK  148  A    between atoms: _338  and  _339
REMARK  149  A    between atoms: _338  and  _341
REMARK  150  A    between atoms: _341  and  _342
REMARK  151  A    between atoms: _345  and  _347
REMARK  152  A    between atoms: _347  and  _348
REMARK  153  A    between atoms: _347  and  _350
REMARK  154  A    between atoms: _350  and  _351
REMARK  155  A    between atoms: _356  and  _358
REMARK  156  A    between atoms: _358  and  _359
REMARK  157  A    between atoms: _358  and  _361
REMARK  158  A    between atoms: _361  and  _362
REMARK  159  A    between atoms: _362  and  _363
REMARK  160  A    between atoms: _363  and  _364
REMARK  161  A    between atoms: _373  and  _375
REMARK  162  A    between atoms: _375  and  _376
REMARK  163  A    between atoms: _378  and  _380
REMARK  164  A    between atoms: _380  and  _381
REMARK  165  A    between atoms: _380  and  _383
REMARK  166  A    between atoms: _386  and  _388
REMARK  167  A    between atoms: _388  and  _389
REMARK  168  A    between atoms: _388  and  _391
REMARK  169  A    between atoms: _391  and  _392
REMARK  170  A    between atoms: _395  and  _397
REMARK  171  A    between atoms: _397  and  _398
REMARK  172  A    between atoms: _397  and  _400
REMARK  173  A    between atoms: _400  and  _401
REMARK  174  A    between atoms: _401  and  _402
REMARK  175  A    between atoms: _402  and  _403
REMARK  176  A    between atoms: _403  and  _404
REMARK  177  A    between atoms: _408  and  _410
REMARK  178  A    between atoms: _410  and  _411
REMARK  179  A    between atoms: _410  and  _413
REMARK  180  A    between atoms: _413  and  _414
REMARK  181  A    between atoms: _414  and  _415
REMARK  182  A    between atoms: _415  and  _416
REMARK  183  A    between atoms: _416  and  _417
REMARK  184  A    between atoms: _421  and  _423
REMARK  185  A    between atoms: _423  and  _424
REMARK  186  A    between atoms: _423  and  _426
REMARK  187  A    between atoms: _426  and  _427
REMARK  188  A    between atoms: _432  and  _434
REMARK  189  A    between atoms: _434  and  _435
REMARK  190  A    between atoms: _434  and  _437
REMARK  191  A    between atoms: _437  and  _438
REMARK  192  A    between atoms: _443  and  _445
REMARK  193  A    between atoms: _445  and  _446
REMARK  194  A    between atoms: _449  and  _451
REMARK  195  A    between atoms: _451  and  _452
REMARK  196  A    between atoms: _451  and  _454
REMARK  197  A    between atoms: _454  and  _455
REMARK  198  A    between atoms: _460  and  _462
REMARK  199  A    between atoms: _462  and  _463
REMARK  200  A    between atoms: _466  and  _468
REMARK  201  A    between atoms: _468  and  _469
REMARK  202  A    between atoms: _472  and  _474
REMARK  203  A    between atoms: _474  and  _475
REMARK  204  A    between atoms: _474  and  _477
REMARK  205  A    between atoms: _477  and  _478
REMARK  206  A    between atoms: _483  and  _485
REMARK  207  A    between atoms: _485  and  _486
REMARK  208  A    between atoms: _485  and  _488
REMARK  209  A    between atoms: _488  and  _489
REMARK  210  A    between atoms: _492  and  _494
REMARK  211  A    between atoms: _494  and  _495
REMARK  212  A    between atoms: _497  and  _499
REMARK  213  A    between atoms: _499  and  _500
REMARK  214  A    between atoms: _499  and  _502
REMARK  215  A    between atoms: _502  and  _503
REMARK  216  A    between atoms: _503  and  _504
REMARK  217  A    between atoms: _507  and  _509
REMARK  218  A    between atoms: _509  and  _510
REMARK  219  A    between atoms: _509  and  _512
REMARK  220  A    between atoms: _512  and  _513
REMARK  221  A    between atoms: _516  and  _518
REMARK  222  A    between atoms: _518  and  _519
REMARK  223  A    between atoms: _518  and  _521
REMARK  224  A    between atoms: _521  and  _522
REMARK  225  A    between atoms: _524  and  _526
REMARK  226  A    between atoms: _526  and  _527
REMARK  227  A    between atoms: _526  and  _529
REMARK  228  A    between atoms: _529  and  _530
REMARK  229  A    between atoms: _533  and  _535
REMARK  230  A    between atoms: _535  and  _536
REMARK  231  A    between atoms: _535  and  _538
REMARK  232  A    between atoms: _538  and  _539
REMARK  233  A    between atoms: _539  and  _540
REMARK  234  A    between atoms: _542  and  _544
REMARK  235  A    between atoms: _544  and  _545
REMARK  236  A    between atoms: _548  and  _550
REMARK  237  A    between atoms: _550  and  _551
REMARK  238  A    between atoms: _554  and  _556
REMARK  239  A    between atoms: _556  and  _557
REMARK  240  A    between atoms: _556  and  _559
REMARK  241  A    between atoms: _559  and  _560
REMARK  242  A    between atoms: _563  and  _565
REMARK  243  A    between atoms: _565  and  _566
REMARK  244  A    between atoms: _569  and  _571
REMARK  245  A    between atoms: _571  and  _572
REMARK                            x       y       z     vdW  Elec       q    Type
REMARK                         _______ _______ _______ _____ _____    ______ ____
ROOT
ATOM      1  O   HOH     1      78.465   3.319  -5.592  0.00  0.00    +0.000 OA
ENDROOT
TORSDOF 0
REMARK  Name = ../refined-set-2016/3ccz/3ccz_pocket.pdb
REMARK  245 active torsions:
REMARK  status: ('A' for Active; 'I' for Inactive)
REMARK    1  A    between atoms: _1  and  _3
REMARK    2  A    between atoms: _3  and  _4
REMARK    3  A    between atoms: _3  and  _6
REMARK    4  A    between atoms: _6  and  _7
REMARK    5  A    between atoms: _7  and  _8
REMARK    6  A    between atoms: _11  and  _13
REMARK    7  A    between atoms: _13  and  _14
REMARK    8  A    between atoms: _13  and  _16
REMARK    9  A    between atoms: _16  and  _17
REMARK   10  A    between atoms: _20  and  _22
REMARK   11  A    between atoms: _22  and  _23
REMARK   12  A    between atoms: _22  and  _25
REMARK   13  A    between atoms: _25  and  _26
REMARK   14  A    between atoms: _26  and  _27
REMARK   15  A    between atoms: _27  and  _28
REMARK   16  A    between atoms: _37  and  _39
REMARK   17  A    between atoms: _39  and  _40
REMARK   18  A    between atoms: _43  and  _44
REMARK   19  A    between atoms: _49  and  _51
REMARK   20  A    between atoms: _51  and  _52
REMARK   21  A    between atoms: _51  and  _54
REMARK   22  A    between atoms: _54  and  _55
REMARK   23  A    between atoms: _55  and  _56
REMARK   24  A    between atoms: _58  and  _60
REMARK   25  A    between atoms: _60  and  _61
REMARK   26  A    between atoms: _60  and  _63
REMARK   27  A    between atoms: _63  and  _64
REMARK   28  A    between atoms: _64  and  _65
REMARK   29  A    between atoms: _67  and  _69
REMARK   30  A    between atoms: _69  and  _70
REMARK   31  A    between atoms: _69  and  _72
REMARK   32  A    between atoms: _72  and  _73
REMARK   33  A    between atoms: _78  and  _80
REMARK   34  A    between atoms: _80  and  _81
REMARK   35  A    between atoms: _80  and  _83
REMARK   36  A    between atoms: _83  and  _84
REMARK   37  A    between atoms: _84  and  _85
REMARK   38  A    between atoms: _87  and  _89
REMARK   39  A    between atoms: _89  and  _90
REMARK   40  A    between atoms: _89  and  _92
REMARK   41  A    between atoms: _92  and  _93
REMARK   42  A    between atoms: _96  and  _98
REMARK   43  A    between atoms: _98  and  _99
REMARK   44  A    between atoms: _98  and  _101
REMARK   45  A    between atoms: _101  and  _102
REMARK   46  A    between atoms: _104  and  _106
REMARK   47  A    between atoms: _106  and  _107
REMARK   48  A    between atoms: _106  and  _109
REMARK   49  A    between atoms: _109  and  _110
REMARK   50  A    between atoms: _110  and  _111
REMARK   51  A    between atoms: _111  and  _112
REMARK   52  A    between atoms: _112  and  _113
REMARK   53  A    between atoms: _117  and  _119
REMARK   54  A    between atoms: _119  and  _120
REMARK   55  A    between atoms: _119  and  _122
REMARK   56  A    between atoms: _122  and  _123
REMARK   57  A    between atoms: _126  and  _128
REMARK   58  A    between atoms: _128  and  _129
REMARK   59  A    between atoms: _128  and  _131
REMARK   60  A    between atoms: _131  and  _132
REMARK   61  A    between atoms: _132  and  _133
REMARK   62  A    between atoms: _136  and  _138
REMARK   63  A    between atoms: _138  and  _139
REMARK   64  A    between atoms: _142  and  _144
REMARK   65  A    between atoms: _144  and  _145
REMARK   66  A    between atoms: _144  and  _147
REMARK   67  A    between atoms: _150  and  _152
REMARK   68  A    between atoms: _152  and  _153
REMARK   69  A    between atoms: _152  and  _155
REMARK   70  A    between atoms: _155  and  _156
REMARK   71  A    between atoms: _158  and  _160
REMARK   72  A    between atoms: _160  and  _161
REMARK   73  A    between atoms: _163  and  _165
REMARK   74  A    between atoms: _165  and  _166
REMARK   75  A    between atoms: _165  and  _168
REMARK   76  A    between atoms: _168  and  _169
REMARK   77  A    between atoms: _174  and  _176
REMARK   78  A    between atoms: _176  and  _177
REMARK   79  A    between atoms: _176  and  _179
REMARK   80  A    between atoms: _179  and  _180
REMARK   81  A    between atoms: _185  and  _186
REMARK   82  A    between atoms: _188  and  _190
REMARK   83  A    between atoms: _190  and  _191
REMARK   84  A    between atoms: _190  and  _193
REMARK   85  A    between atoms: _195  and  _197
REMARK   86  A    between atoms: _197  and  _198
REMARK   87  A    between atoms: _197  and  _200
REMARK   88  A    between atoms: _200  and  _201
REMARK   89  A    between atoms: _204  and  _206
REMARK   90  A    between atoms: _206  and  _207
REMARK   91  A    between atoms: _206  and  _209
REMARK   92  A    between atoms: _209  and  _210
REMARK   93  A    between atoms: _213  and  _215
REMARK   94  A    between atoms: _215  and  _216
REMARK   95  A    between atoms: _215  and  _218
REMARK   96  A    between atoms: _218  and  _219
REMARK   97  A    between atoms: _219  and  _220
REMARK   98  A    between atoms: _220  and  _221
REMARK   99  A    between atoms: _221  and  _222
REMARK  100  A    between atoms: _226  and  _228
REMARK  101  A    between atoms: _228  and  _229
REMARK  102  A    between atoms: _228  and  _231
REMARK  103  A    between atoms: _231  and  _232
REMARK  104  A    between atoms: _232  and  _233
REMARK  105  A    between atoms: _233  and  _234
REMARK  106  A    between atoms: _234  and  _235
REMARK  107  A    between atoms: _239  and  _241
REMARK  108  A    between atoms: _241  and  _242
REMARK  109  A    between atoms: _241  and  _244
REMARK  110  A    between atoms: _244  and  _245
REMARK  111  A    between atoms: _245  and  _246
REMARK  112  A    between atoms: _246  and  _247
REMARK  113  A    between atoms: _256  and  _258
REMARK  114  A    between atoms: _258  and  _259
REMARK  115  A    between atoms: _258  and  _261
REMARK  116  A    between atoms: _261  and  _262
REMARK  117  A    between atoms: _265  and  _267
REMARK  118  A    between atoms: _267  and  _268
REMARK  119  A    between atoms: _271  and  _273
REMARK  120  A    between atoms: _273  and  _274
REMARK  121  A    between atoms: _273  and  _276
REMARK  122  A    between atoms: _276  and  _277
REMARK  123  A    between atoms: _277  and  _278
REMARK  124  A    between atoms: _283  and  _285
REMARK  125  A    between atoms: _285  and  _286
REMARK  126  A    between atoms: _285  and  _288
REMARK  127  A    between atoms: _288  and  _289
REMARK  128  A    between atoms: _289  and  _290
REMARK  129  A    between atoms: _293  and  _295
REMARK  130  A    between atoms: _295  and  _296
REMARK  131  A    between atoms: _298  and  _300
REMARK  132  A    between atoms: _300  and  _301
REMARK  133  A    between atoms: _300  and  _303
REMARK  134  A    between atoms: _305  and  _307
REMARK  135  A    between atoms: _307  and  _308
REMARK  136  A    between atoms: _307  and  _310
REMARK  137  A    between atoms: _310  and  _311
REMARK  138  A    between atoms: _314  and  _316
REMARK  139  A    between atoms: _316  and  _317
REMARK  140  A    between atoms: _316  and  _319
REMARK  141  A    between atoms: _322  and  _324
REMARK  142  A    between atoms: _324  and  _325
REMARK  143  A    between atoms: _328  and  _330
REMARK  144  A    between atoms: _330  and  _331
REMARK  145  A    between atoms: _330  and  _333
REMARK  146  A    between atoms: _333  and  _334
REMARK  147  A    between atoms: _336  and  _338
REMARK  148  A    between atoms: _338  and  _339
REMARK  149  A    between atoms: _338  and  _341
REMARK  150  A    between atoms: _341  and  _342
REMARK  151  A    between atoms: _345  and  _347
REMARK  152  A    between atoms: _347  and  _348
REMARK  153  A    between atoms: _347  and  _350
REMARK  154  A    between atoms: _350  and  _351
REMARK  155  A    between atoms: _356  and  _358
REMARK  156  A    between atoms: _358  and  _359
REMARK  157  A    between atoms: _358  and  _361
REMARK  158  A    between atoms: _361  and  _362
REMARK  159  A    between atoms: _362  and  _363
REMARK  160  A    between atoms: _363  and  _364
REMARK  161  A    between atoms: _373  and  _375
REMARK  162  A    between atoms: _375  and  _376
REMARK  163  A    between atoms: _378  and  _380
REMARK  164  A    between atoms: _380  and  _381
REMARK  165  A    between atoms: _380  and  _383
REMARK  166  A    between atoms: _386  and  _388
REMARK  167  A    between atoms: _388  and  _389
REMARK  168  A    between atoms: _388  and  _391
REMARK  169  A    between atoms: _391  and  _392
REMARK  170  A    between atoms: _395  and  _397
REMARK  171  A    between atoms: _397  and  _398
REMARK  172  A    between atoms: _397  and  _400
REMARK  173  A    between atoms: _400  and  _401
REMARK  174  A    between atoms: _401  and  _402
REMARK  175  A    between atoms: _402  and  _403
REMARK  176  A    between atoms: _403  and  _404
REMARK  177  A    between atoms: _408  and  _410
REMARK  178  A    between atoms: _410  and  _411
REMARK  179  A    between atoms: _410  and  _413
REMARK  180  A    between atoms: _413  and  _414
REMARK  181  A    between atoms: _414  and  _415
REMARK  182  A    between atoms: _415  and  _416
REMARK  183  A    between atoms: _416  and  _417
REMARK  184  A    between atoms: _421  and  _423
REMARK  185  A    between atoms: _423  and  _424
REMARK  186  A    between atoms: _423  and  _426
REMARK  187  A    between atoms: _426  and  _427
REMARK  188  A    between atoms: _432  and  _434
REMARK  189  A    between atoms: _434  and  _435
REMARK  190  A    between atoms: _434  and  _437
REMARK  191  A    between atoms: _437  and  _438
REMARK  192  A    between atoms: _443  and  _445
REMARK  193  A    between atoms: _445  and  _446
REMARK  194  A    between atoms: _449  and  _451
REMARK  195  A    between atoms: _451  and  _452
REMARK  196  A    between atoms: _451  and  _454
REMARK  197  A    between atoms: _454  and  _455
REMARK  198  A    between atoms: _460  and  _462
REMARK  199  A    between atoms: _462  and  _463
REMARK  200  A    between atoms: _466  and  _468
REMARK  201  A    between atoms: _468  and  _469
REMARK  202  A    between atoms: _472  and  _474
REMARK  203  A    between atoms: _474  and  _475
REMARK  204  A    between atoms: _474  and  _477
REMARK  205  A    between atoms: _477  and  _478
REMARK  206  A    between atoms: _483  and  _485
REMARK  207  A    between atoms: _485  and  _486
REMARK  208  A    between atoms: _485  and  _488
REMARK  209  A    between atoms: _488  and  _489
REMARK  210  A    between atoms: _492  and  _494
REMARK  211  A    between atoms: _494  and  _495
REMARK  212  A    between atoms: _497  and  _499
REMARK  213  A    between atoms: _499  and  _500
REMARK  214  A    between atoms: _499  and  _502
REMARK  215  A    between atoms: _502  and  _503
REMARK  216  A    between atoms: _503  and  _504
REMARK  217  A    between atoms: _507  and  _509
REMARK  218  A    between atoms: _509  and  _510
REMARK  219  A    between atoms: _509  and  _512
REMARK  220  A    between atoms: _512  and  _513
REMARK  221  A    between atoms: _516  and  _518
REMARK  222  A    between atoms: _518  and  _519
REMARK  223  A    between atoms: _518  and  _521
REMARK  224  A    between atoms: _521  and  _522
REMARK  225  A    between atoms: _524  and  _526
REMARK  226  A    between atoms: _526  and  _527
REMARK  227  A    between atoms: _526  and  _529
REMARK  228  A    between atoms: _529  and  _530
REMARK  229  A    between atoms: _533  and  _535
REMARK  230  A    between atoms: _535  and  _536
REMARK  231  A    between atoms: _535  and  _538
REMARK  232  A    between atoms: _538  and  _539
REMARK  233  A    between atoms: _539  and  _540
REMARK  234  A    between atoms: _542  and  _544
REMARK  235  A    between atoms: _544  and  _545
REMARK  236  A    between atoms: _548  and  _550
REMARK  237  A    between atoms: _550  and  _551
REMARK  238  A    between atoms: _554  and  _556
REMARK  239  A    between atoms: _556  and  _557
REMARK  240  A    between atoms: _556  and  _559
REMARK  241  A    between atoms: _559  and  _560
REMARK  242  A    between atoms: _563  and  _565
REMARK  243  A    between atoms: _565  and  _566
REMARK  244  A    between atoms: _569  and  _571
REMARK  245  A    between atoms: _571  and  _572
REMARK                            x       y       z     vdW  Elec       q    Type
REMARK                         _______ _______ _______ _____ _____    ______ ____
ROOT
ATOM      1  O   HOH     1      84.247   1.167  -5.456  0.00  0.00    +0.000 OA
ENDROOT
TORSDOF 0
REMARK  Name = ../refined-set-2016/3ccz/3ccz_pocket.pdb
REMARK  245 active torsions:
REMARK  status: ('A' for Active; 'I' for Inactive)
REMARK    1  A    between atoms: _1  and  _3
REMARK    2  A    between atoms: _3  and  _4
REMARK    3  A    between atoms: _3  and  _6
REMARK    4  A    between atoms: _6  and  _7
REMARK    5  A    between atoms: _7  and  _8
REMARK    6  A    between atoms: _11  and  _13
REMARK    7  A    between atoms: _13  and  _14
REMARK    8  A    between atoms: _13  and  _16
REMARK    9  A    between atoms: _16  and  _17
REMARK   10  A    between atoms: _20  and  _22
REMARK   11  A    between atoms: _22  and  _23
REMARK   12  A    between atoms: _22  and  _25
REMARK   13  A    between atoms: _25  and  _26
REMARK   14  A    between atoms: _26  and  _27
REMARK   15  A    between atoms: _27  and  _28
REMARK   16  A    between atoms: _37  and  _39
REMARK   17  A    between atoms: _39  and  _40
REMARK   18  A    between atoms: _43  and  _44
REMARK   19  A    between atoms: _49  and  _51
REMARK   20  A    between atoms: _51  and  _52
REMARK   21  A    between atoms: _51  and  _54
REMARK   22  A    between atoms: _54  and  _55
REMARK   23  A    between atoms: _55  and  _56
REMARK   24  A    between atoms: _58  and  _60
REMARK   25  A    between atoms: _60  and  _61
REMARK   26  A    between atoms: _60  and  _63
REMARK   27  A    between atoms: _63  and  _64
REMARK   28  A    between atoms: _64  and  _65
REMARK   29  A    between atoms: _67  and  _69
REMARK   30  A    between atoms: _69  and  _70
REMARK   31  A    between atoms: _69  and  _72
REMARK   32  A    between atoms: _72  and  _73
REMARK   33  A    between atoms: _78  and  _80
REMARK   34  A    between atoms: _80  and  _81
REMARK   35  A    between atoms: _80  and  _83
REMARK   36  A    between atoms: _83  and  _84
REMARK   37  A    between atoms: _84  and  _85
REMARK   38  A    between atoms: _87  and  _89
REMARK   39  A    between atoms: _89  and  _90
REMARK   40  A    between atoms: _89  and  _92
REMARK   41  A    between atoms: _92  and  _93
REMARK   42  A    between atoms: _96  and  _98
REMARK   43  A    between atoms: _98  and  _99
REMARK   44  A    between atoms: _98  and  _101
REMARK   45  A    between atoms: _101  and  _102
REMARK   46  A    between atoms: _104  and  _106
REMARK   47  A    between atoms: _106  and  _107
REMARK   48  A    between atoms: _106  and  _109
REMARK   49  A    between atoms: _109  and  _110
REMARK   50  A    between atoms: _110  and  _111
REMARK   51  A    between atoms: _111  and  _112
REMARK   52  A    between atoms: _112  and  _113
REMARK   53  A    between atoms: _117  and  _119
REMARK   54  A    between atoms: _119  and  _120
REMARK   55  A    between atoms: _119  and  _122
REMARK   56  A    between atoms: _122  and  _123
REMARK   57  A    between atoms: _126  and  _128
REMARK   58  A    between atoms: _128  and  _129
REMARK   59  A    between atoms: _128  and  _131
REMARK   60  A    between atoms: _131  and  _132
REMARK   61  A    between atoms: _132  and  _133
REMARK   62  A    between atoms: _136  and  _138
REMARK   63  A    between atoms: _138  and  _139
REMARK   64  A    between atoms: _142  and  _144
REMARK   65  A    between atoms: _144  and  _145
REMARK   66  A    between atoms: _144  and  _147
REMARK   67  A    between atoms: _150  and  _152
REMARK   68  A    between atoms: _152  and  _153
REMARK   69  A    between atoms: _152  and  _155
REMARK   70  A    between atoms: _155  and  _156
REMARK   71  A    between atoms: _158  and  _160
REMARK   72  A    between atoms: _160  and  _161
REMARK   73  A    between atoms: _163  and  _165
REMARK   74  A    between atoms: _165  and  _166
REMARK   75  A    between atoms: _165  and  _168
REMARK   76  A    between atoms: _168  and  _169
REMARK   77  A    between atoms: _174  and  _176
REMARK   78  A    between atoms: _176  and  _177
REMARK   79  A    between atoms: _176  and  _179
REMARK   80  A    between atoms: _179  and  _180
REMARK   81  A    between atoms: _185  and  _186
REMARK   82  A    between atoms: _188  and  _190
REMARK   83  A    between atoms: _190  and  _191
REMARK   84  A    between atoms: _190  and  _193
REMARK   85  A    between atoms: _195  and  _197
REMARK   86  A    between atoms: _197  and  _198
REMARK   87  A    between atoms: _197  and  _200
REMARK   88  A    between atoms: _200  and  _201
REMARK   89  A    between atoms: _204  and  _206
REMARK   90  A    between atoms: _206  and  _207
REMARK   91  A    between atoms: _206  and  _209
REMARK   92  A    between atoms: _209  and  _210
REMARK   93  A    between atoms: _213  and  _215
REMARK   94  A    between atoms: _215  and  _216
REMARK   95  A    between atoms: _215  and  _218
REMARK   96  A    between atoms: _218  and  _219
REMARK   97  A    between atoms: _219  and  _220
REMARK   98  A    between atoms: _220  and  _221
REMARK   99  A    between atoms: _221  and  _222
REMARK  100  A    between atoms: _226  and  _228
REMARK  101  A    between atoms: _228  and  _229
REMARK  102  A    between atoms: _228  and  _231
REMARK  103  A    between atoms: _231  and  _232
REMARK  104  A    between atoms: _232  and  _233
REMARK  105  A    between atoms: _233  and  _234
REMARK  106  A    between atoms: _234  and  _235
REMARK  107  A    between atoms: _239  and  _241
REMARK  108  A    between atoms: _241  and  _242
REMARK  109  A    between atoms: _241  and  _244
REMARK  110  A    between atoms: _244  and  _245
REMARK  111  A    between atoms: _245  and  _246
REMARK  112  A    between atoms: _246  and  _247
REMARK  113  A    between atoms: _256  and  _258
REMARK  114  A    between atoms: _258  and  _259
REMARK  115  A    between atoms: _258  and  _261
REMARK  116  A    between atoms: _261  and  _262
REMARK  117  A    between atoms: _265  and  _267
REMARK  118  A    between atoms: _267  and  _268
REMARK  119  A    between atoms: _271  and  _273
REMARK  120  A    between atoms: _273  and  _274
REMARK  121  A    between atoms: _273  and  _276
REMARK  122  A    between atoms: _276  and  _277
REMARK  123  A    between atoms: _277  and  _278
REMARK  124  A    between atoms: _283  and  _285
REMARK  125  A    between atoms: _285  and  _286
REMARK  126  A    between atoms: _285  and  _288
REMARK  127  A    between atoms: _288  and  _289
REMARK  128  A    between atoms: _289  and  _290
REMARK  129  A    between atoms: _293  and  _295
REMARK  130  A    between atoms: _295  and  _296
REMARK  131  A    between atoms: _298  and  _300
REMARK  132  A    between atoms: _300  and  _301
REMARK  133  A    between atoms: _300  and  _303
REMARK  134  A    between atoms: _305  and  _307
REMARK  135  A    between atoms: _307  and  _308
REMARK  136  A    between atoms: _307  and  _310
REMARK  137  A    between atoms: _310  and  _311
REMARK  138  A    between atoms: _314  and  _316
REMARK  139  A    between atoms: _316  and  _317
REMARK  140  A    between atoms: _316  and  _319
REMARK  141  A    between atoms: _322  and  _324
REMARK  142  A    between atoms: _324  and  _325
REMARK  143  A    between atoms: _328  and  _330
REMARK  144  A    between atoms: _330  and  _331
REMARK  145  A    between atoms: _330  and  _333
REMARK  146  A    between atoms: _333  and  _334
REMARK  147  A    between atoms: _336  and  _338
REMARK  148  A    between atoms: _338  and  _339
REMARK  149  A    between atoms: _338  and  _341
REMARK  150  A    between atoms: _341  and  _342
REMARK  151  A    between atoms: _345  and  _347
REMARK  152  A    between atoms: _347  and  _348
REMARK  153  A    between atoms: _347  and  _350
REMARK  154  A    between atoms: _350  and  _351
REMARK  155  A    between atoms: _356  and  _358
REMARK  156  A    between atoms: _358  and  _359
REMARK  157  A    between atoms: _358  and  _361
REMARK  158  A    between atoms: _361  and  _362
REMARK  159  A    between atoms: _362  and  _363
REMARK  160  A    between atoms: _363  and  _364
REMARK  161  A    between atoms: _373  and  _375
REMARK  162  A    between atoms: _375  and  _376
REMARK  163  A    between atoms: _378  and  _380
REMARK  164  A    between atoms: _380  and  _381
REMARK  165  A    between atoms: _380  and  _383
REMARK  166  A    between atoms: _386  and  _388
REMARK  167  A    between atoms: _388  and  _389
REMARK  168  A    between atoms: _388  and  _391
REMARK  169  A    between atoms: _391  and  _392
REMARK  170  A    between atoms: _395  and  _397
REMARK  171  A    between atoms: _397  and  _398
REMARK  172  A    between atoms: _397  and  _400
REMARK  173  A    between atoms: _400  and  _401
REMARK  174  A    between atoms: _401  and  _402
REMARK  175  A    between atoms: _402  and  _403
REMARK  176  A    between atoms: _403  and  _404
REMARK  177  A    between atoms: _408  and  _410
REMARK  178  A    between atoms: _410  and  _411
REMARK  179  A    between atoms: _410  and  _413
REMARK  180  A    between atoms: _413  and  _414
REMARK  181  A    between atoms: _414  and  _415
REMARK  182  A    between atoms: _415  and  _416
REMARK  183  A    between atoms: _416  and  _417
REMARK  184  A    between atoms: _421  and  _423
REMARK  185  A    between atoms: _423  and  _424
REMARK  186  A    between atoms: _423  and  _426
REMARK  187  A    between atoms: _426  and  _427
REMARK  188  A    between atoms: _432  and  _434
REMARK  189  A    between atoms: _434  and  _435
REMARK  190  A    between atoms: _434  and  _437
REMARK  191  A    between atoms: _437  and  _438
REMARK  192  A    between atoms: _443  and  _445
REMARK  193  A    between atoms: _445  and  _446
REMARK  194  A    between atoms: _449  and  _451
REMARK  195  A    between atoms: _451  and  _452
REMARK  196  A    between atoms: _451  and  _454
REMARK  197  A    between atoms: _454  and  _455
REMARK  198  A    between atoms: _460  and  _462
REMARK  199  A    between atoms: _462  and  _463
REMARK  200  A    between atoms: _466  and  _468
REMARK  201  A    between atoms: _468  and  _469
REMARK  202  A    between atoms: _472  and  _474
REMARK  203  A    between atoms: _474  and  _475
REMARK  204  A    between atoms: _474  and  _477
REMARK  205  A    between atoms: _477  and  _478
REMARK  206  A    between atoms: _483  and  _485
REMARK  207  A    between atoms: _485  and  _486
REMARK  208  A    between atoms: _485  and  _488
REMARK  209  A    between atoms: _488  and  _489
REMARK  210  A    between atoms: _492  and  _494
REMARK  211  A    between atoms: _494  and  _495
REMARK  212  A    between atoms: _497  and  _499
REMARK  213  A    between atoms: _499  and  _500
REMARK  214  A    between atoms: _499  and  _502
REMARK  215  A    between atoms: _502  and  _503
REMARK  216  A    between atoms: _503  and  _504
REMARK  217  A    between atoms: _507  and  _509
REMARK  218  A    between atoms: _509  and  _510
REMARK  219  A    between atoms: _509  and  _512
REMARK  220  A    between atoms: _512  and  _513
REMARK  221  A    between atoms: _516  and  _518
REMARK  222  A    between atoms: _518  and  _519
REMARK  223  A    between atoms: _518  and  _521
REMARK  224  A    between atoms: _521  and  _522
REMARK  225  A    between atoms: _524  and  _526
REMARK  226  A    between atoms: _526  and  _527
REMARK  227  A    between atoms: _526  and  _529
REMARK  228  A    between atoms: _529  and  _530
REMARK  229  A    between atoms: _533  and  _535
REMARK  230  A    between atoms: _535  and  _536
REMARK  231  A    between atoms: _535  and  _538
REMARK  232  A    between atoms: _538  and  _539
REMARK  233  A    between atoms: _539  and  _540
REMARK  234  A    between atoms: _542  and  _544
REMARK  235  A    between atoms: _544  and  _545
REMARK  236  A    between atoms: _548  and  _550
REMARK  237  A    between atoms: _550  and  _551
REMARK  238  A    between atoms: _554  and  _556
REMARK  239  A    between atoms: _556  and  _557
REMARK  240  A    between atoms: _556  and  _559
REMARK  241  A    between atoms: _559  and  _560
REMARK  242  A    between atoms: _563  and  _565
REMARK  243  A    between atoms: _565  and  _566
REMARK  244  A    between atoms: _569  and  _571
REMARK  245  A    between atoms: _571  and  _572
REMARK                            x       y       z     vdW  Elec       q    Type
REMARK                         _______ _______ _______ _____ _____    ______ ____
ROOT
ATOM      1  O   HOH     1      72.872   6.041  -9.130  0.00  0.00    +0.000 OA
ENDROOT
TORSDOF 0
REMARK  Name = ../refined-set-2016/3ccz/3ccz_pocket.pdb
REMARK  245 active torsions:
REMARK  status: ('A' for Active; 'I' for Inactive)
REMARK    1  A    between atoms: _1  and  _3
REMARK    2  A    between atoms: _3  and  _4
REMARK    3  A    between atoms: _3  and  _6
REMARK    4  A    between atoms: _6  and  _7
REMARK    5  A    between atoms: _7  and  _8
REMARK    6  A    between atoms: _11  and  _13
REMARK    7  A    between atoms: _13  and  _14
REMARK    8  A    between atoms: _13  and  _16
REMARK    9  A    between atoms: _16  and  _17
REMARK   10  A    between atoms: _20  and  _22
REMARK   11  A    between atoms: _22  and  _23
REMARK   12  A    between atoms: _22  and  _25
REMARK   13  A    between atoms: _25  and  _26
REMARK   14  A    between atoms: _26  and  _27
REMARK   15  A    between atoms: _27  and  _28
REMARK   16  A    between atoms: _37  and  _39
REMARK   17  A    between atoms: _39  and  _40
REMARK   18  A    between atoms: _43  and  _44
REMARK   19  A    between atoms: _49  and  _51
REMARK   20  A    between atoms: _51  and  _52
REMARK   21  A    between atoms: _51  and  _54
REMARK   22  A    between atoms: _54  and  _55
REMARK   23  A    between atoms: _55  and  _56
REMARK   24  A    between atoms: _58  and  _60
REMARK   25  A    between atoms: _60  and  _61
REMARK   26  A    between atoms: _60  and  _63
REMARK   27  A    between atoms: _63  and  _64
REMARK   28  A    between atoms: _64  and  _65
REMARK   29  A    between atoms: _67  and  _69
REMARK   30  A    between atoms: _69  and  _70
REMARK   31  A    between atoms: _69  and  _72
REMARK   32  A    between atoms: _72  and  _73
REMARK   33  A    between atoms: _78  and  _80
REMARK   34  A    between atoms: _80  and  _81
REMARK   35  A    between atoms: _80  and  _83
REMARK   36  A    between atoms: _83  and  _84
REMARK   37  A    between atoms: _84  and  _85
REMARK   38  A    between atoms: _87  and  _89
REMARK   39  A    between atoms: _89  and  _90
REMARK   40  A    between atoms: _89  and  _92
REMARK   41  A    between atoms: _92  and  _93
REMARK   42  A    between atoms: _96  and  _98
REMARK   43  A    between atoms: _98  and  _99
REMARK   44  A    between atoms: _98  and  _101
REMARK   45  A    between atoms: _101  and  _102
REMARK   46  A    between atoms: _104  and  _106
REMARK   47  A    between atoms: _106  and  _107
REMARK   48  A    between atoms: _106  and  _109
REMARK   49  A    between atoms: _109  and  _110
REMARK   50  A    between atoms: _110  and  _111
REMARK   51  A    between atoms: _111  and  _112
REMARK   52  A    between atoms: _112  and  _113
REMARK   53  A    between atoms: _117  and  _119
REMARK   54  A    between atoms: _119  and  _120
REMARK   55  A    between atoms: _119  and  _122
REMARK   56  A    between atoms: _122  and  _123
REMARK   57  A    between atoms: _126  and  _128
REMARK   58  A    between atoms: _128  and  _129
REMARK   59  A    between atoms: _128  and  _131
REMARK   60  A    between atoms: _131  and  _132
REMARK   61  A    between atoms: _132  and  _133
REMARK   62  A    between atoms: _136  and  _138
REMARK   63  A    between atoms: _138  and  _139
REMARK   64  A    between atoms: _142  and  _144
REMARK   65  A    between atoms: _144  and  _145
REMARK   66  A    between atoms: _144  and  _147
REMARK   67  A    between atoms: _150  and  _152
REMARK   68  A    between atoms: _152  and  _153
REMARK   69  A    between atoms: _152  and  _155
REMARK   70  A    between atoms: _155  and  _156
REMARK   71  A    between atoms: _158  and  _160
REMARK   72  A    between atoms: _160  and  _161
REMARK   73  A    between atoms: _163  and  _165
REMARK   74  A    between atoms: _165  and  _166
REMARK   75  A    between atoms: _165  and  _168
REMARK   76  A    between atoms: _168  and  _169
REMARK   77  A    between atoms: _174  and  _176
REMARK   78  A    between atoms: _176  and  _177
REMARK   79  A    between atoms: _176  and  _179
REMARK   80  A    between atoms: _179  and  _180
REMARK   81  A    between atoms: _185  and  _186
REMARK   82  A    between atoms: _188  and  _190
REMARK   83  A    between atoms: _190  and  _191
REMARK   84  A    between atoms: _190  and  _193
REMARK   85  A    between atoms: _195  and  _197
REMARK   86  A    between atoms: _197  and  _198
REMARK   87  A    between atoms: _197  and  _200
REMARK   88  A    between atoms: _200  and  _201
REMARK   89  A    between atoms: _204  and  _206
REMARK   90  A    between atoms: _206  and  _207
REMARK   91  A    between atoms: _206  and  _209
REMARK   92  A    between atoms: _209  and  _210
REMARK   93  A    between atoms: _213  and  _215
REMARK   94  A    between atoms: _215  and  _216
REMARK   95  A    between atoms: _215  and  _218
REMARK   96  A    between atoms: _218  and  _219
REMARK   97  A    between atoms: _219  and  _220
REMARK   98  A    between atoms: _220  and  _221
REMARK   99  A    between atoms: _221  and  _222
REMARK  100  A    between atoms: _226  and  _228
REMARK  101  A    between atoms: _228  and  _229
REMARK  102  A    between atoms: _228  and  _231
REMARK  103  A    between atoms: _231  and  _232
REMARK  104  A    between atoms: _232  and  _233
REMARK  105  A    between atoms: _233  and  _234
REMARK  106  A    between atoms: _234  and  _235
REMARK  107  A    between atoms: _239  and  _241
REMARK  108  A    between atoms: _241  and  _242
REMARK  109  A    between atoms: _241  and  _244
REMARK  110  A    between atoms: _244  and  _245
REMARK  111  A    between atoms: _245  and  _246
REMARK  112  A    between atoms: _246  and  _247
REMARK  113  A    between atoms: _256  and  _258
REMARK  114  A    between atoms: _258  and  _259
REMARK  115  A    between atoms: _258  and  _261
REMARK  116  A    between atoms: _261  and  _262
REMARK  117  A    between atoms: _265  and  _267
REMARK  118  A    between atoms: _267  and  _268
REMARK  119  A    between atoms: _271  and  _273
REMARK  120  A    between atoms: _273  and  _274
REMARK  121  A    between atoms: _273  and  _276
REMARK  122  A    between atoms: _276  and  _277
REMARK  123  A    between atoms: _277  and  _278
REMARK  124  A    between atoms: _283  and  _285
REMARK  125  A    between atoms: _285  and  _286
REMARK  126  A    between atoms: _285  and  _288
REMARK  127  A    between atoms: _288  and  _289
REMARK  128  A    between atoms: _289  and  _290
REMARK  129  A    between atoms: _293  and  _295
REMARK  130  A    between atoms: _295  and  _296
REMARK  131  A    between atoms: _298  and  _300
REMARK  132  A    between atoms: _300  and  _301
REMARK  133  A    between atoms: _300  and  _303
REMARK  134  A    between atoms: _305  and  _307
REMARK  135  A    between atoms: _307  and  _308
REMARK  136  A    between atoms: _307  and  _310
REMARK  137  A    between atoms: _310  and  _311
REMARK  138  A    between atoms: _314  and  _316
REMARK  139  A    between atoms: _316  and  _317
REMARK  140  A    between atoms: _316  and  _319
REMARK  141  A    between atoms: _322  and  _324
REMARK  142  A    between atoms: _324  and  _325
REMARK  143  A    between atoms: _328  and  _330
REMARK  144  A    between atoms: _330  and  _331
REMARK  145  A    between atoms: _330  and  _333
REMARK  146  A    between atoms: _333  and  _334
REMARK  147  A    between atoms: _336  and  _338
REMARK  148  A    between atoms: _338  and  _339
REMARK  149  A    between atoms: _338  and  _341
REMARK  150  A    between atoms: _341  and  _342
REMARK  151  A    between atoms: _345  and  _347
REMARK  152  A    between atoms: _347  and  _348
REMARK  153  A    between atoms: _347  and  _350
REMARK  154  A    between atoms: _350  and  _351
REMARK  155  A    between atoms: _356  and  _358
REMARK  156  A    between atoms: _358  and  _359
REMARK  157  A    between atoms: _358  and  _361
REMARK  158  A    between atoms: _361  and  _362
REMARK  159  A    between atoms: _362  and  _363
REMARK  160  A    between atoms: _363  and  _364
REMARK  161  A    between atoms: _373  and  _375
REMARK  162  A    between atoms: _375  and  _376
REMARK  163  A    between atoms: _378  and  _380
REMARK  164  A    between atoms: _380  and  _381
REMARK  165  A    between atoms: _380  and  _383
REMARK  166  A    between atoms: _386  and  _388
REMARK  167  A    between atoms: _388  and  _389
REMARK  168  A    between atoms: _388  and  _391
REMARK  169  A    between atoms: _391  and  _392
REMARK  170  A    between atoms: _395  and  _397
REMARK  171  A    between atoms: _397  and  _398
REMARK  172  A    between atoms: _397  and  _400
REMARK  173  A    between atoms: _400  and  _401
REMARK  174  A    between atoms: _401  and  _402
REMARK  175  A    between atoms: _402  and  _403
REMARK  176  A    between atoms: _403  and  _404
REMARK  177  A    between atoms: _408  and  _410
REMARK  178  A    between atoms: _410  and  _411
REMARK  179  A    between atoms: _410  and  _413
REMARK  180  A    between atoms: _413  and  _414
REMARK  181  A    between atoms: _414  and  _415
REMARK  182  A    between atoms: _415  and  _416
REMARK  183  A    between atoms: _416  and  _417
REMARK  184  A    between atoms: _421  and  _423
REMARK  185  A    between atoms: _423  and  _424
REMARK  186  A    between atoms: _423  and  _426
REMARK  187  A    between atoms: _426  and  _427
REMARK  188  A    between atoms: _432  and  _434
REMARK  189  A    between atoms: _434  and  _435
REMARK  190  A    between atoms: _434  and  _437
REMARK  191  A    between atoms: _437  and  _438
REMARK  192  A    between atoms: _443  and  _445
REMARK  193  A    between atoms: _445  and  _446
REMARK  194  A    between atoms: _449  and  _451
REMARK  195  A    between atoms: _451  and  _452
REMARK  196  A    between atoms: _451  and  _454
REMARK  197  A    between atoms: _454  and  _455
REMARK  198  A    between atoms: _460  and  _462
REMARK  199  A    between atoms: _462  and  _463
REMARK  200  A    between atoms: _466  and  _468
REMARK  201  A    between atoms: _468  and  _469
REMARK  202  A    between atoms: _472  and  _474
REMARK  203  A    between atoms: _474  and  _475
REMARK  204  A    between atoms: _474  and  _477
REMARK  205  A    between atoms: _477  and  _478
REMARK  206  A    between atoms: _483  and  _485
REMARK  207  A    between atoms: _485  and  _486
REMARK  208  A    between atoms: _485  and  _488
REMARK  209  A    between atoms: _488  and  _489
REMARK  210  A    between atoms: _492  and  _494
REMARK  211  A    between atoms: _494  and  _495
REMARK  212  A    between atoms: _497  and  _499
REMARK  213  A    between atoms: _499  and  _500
REMARK  214  A    between atoms: _499  and  _502
REMARK  215  A    between atoms: _502  and  _503
REMARK  216  A    between atoms: _503  and  _504
REMARK  217  A    between atoms: _507  and  _509
REMARK  218  A    between atoms: _509  and  _510
REMARK  219  A    between atoms: _509  and  _512
REMARK  220  A    between atoms: _512  and  _513
REMARK  221  A    between atoms: _516  and  _518
REMARK  222  A    between atoms: _518  and  _519
REMARK  223  A    between atoms: _518  and  _521
REMARK  224  A    between atoms: _521  and  _522
REMARK  225  A    between atoms: _524  and  _526
REMARK  226  A    between atoms: _526  and  _527
REMARK  227  A    between atoms: _526  and  _529
REMARK  228  A    between atoms: _529  and  _530
REMARK  229  A    between atoms: _533  and  _535
REMARK  230  A    between atoms: _535  and  _536
REMARK  231  A    between atoms: _535  and  _538
REMARK  232  A    between atoms: _538  and  _539
REMARK  233  A    between atoms: _539  and  _540
REMARK  234  A    between atoms: _542  and  _544
REMARK  235  A    between atoms: _544  and  _545
REMARK  236  A    between atoms: _548  and  _550
REMARK  237  A    between atoms: _550  and  _551
REMARK  238  A    between atoms: _554  and  _556
REMARK  239  A    between atoms: _556  and  _557
REMARK  240  A    between atoms: _556  and  _559
REMARK  241  A    between atoms: _559  and  _560
REMARK  242  A    between atoms: _563  and  _565
REMARK  243  A    between atoms: _565  and  _566
REMARK  244  A    between atoms: _569  and  _571
REMARK  245  A    between atoms: _571  and  _572
REMARK                            x       y       z     vdW  Elec       q    Type
REMARK                         _______ _______ _______ _____ _____    ______ ____
ROOT
ATOM      1  O   HOH     1      79.158   7.526  -8.634  0.00  0.00    +0.000 OA
ENDROOT
TORSDOF 0
REMARK  Name = ../refined-set-2016/3ccz/3ccz_pocket.pdb
REMARK  245 active torsions:
REMARK  status: ('A' for Active; 'I' for Inactive)
REMARK    1  A    between atoms: _1  and  _3
REMARK    2  A    between atoms: _3  and  _4
REMARK    3  A    between atoms: _3  and  _6
REMARK    4  A    between atoms: _6  and  _7
REMARK    5  A    between atoms: _7  and  _8
REMARK    6  A    between atoms: _11  and  _13
REMARK    7  A    between atoms: _13  and  _14
REMARK    8  A    between atoms: _13  and  _16
REMARK    9  A    between atoms: _16  and  _17
REMARK   10  A    between atoms: _20  and  _22
REMARK   11  A    between atoms: _22  and  _23
REMARK   12  A    between atoms: _22  and  _25
REMARK   13  A    between atoms: _25  and  _26
REMARK   14  A    between atoms: _26  and  _27
REMARK   15  A    between atoms: _27  and  _28
REMARK   16  A    between atoms: _37  and  _39
REMARK   17  A    between atoms: _39  and  _40
REMARK   18  A    between atoms: _43  and  _44
REMARK   19  A    between atoms: _49  and  _51
REMARK   20  A    between atoms: _51  and  _52
REMARK   21  A    between atoms: _51  and  _54
REMARK   22  A    between atoms: _54  and  _55
REMARK   23  A    between atoms: _55  and  _56
REMARK   24  A    between atoms: _58  and  _60
REMARK   25  A    between atoms: _60  and  _61
REMARK   26  A    between atoms: _60  and  _63
REMARK   27  A    between atoms: _63  and  _64
REMARK   28  A    between atoms: _64  and  _65
REMARK   29  A    between atoms: _67  and  _69
REMARK   30  A    between atoms: _69  and  _70
REMARK   31  A    between atoms: _69  and  _72
REMARK   32  A    between atoms: _72  and  _73
REMARK   33  A    between atoms: _78  and  _80
REMARK   34  A    between atoms: _80  and  _81
REMARK   35  A    between atoms: _80  and  _83
REMARK   36  A    between atoms: _83  and  _84
REMARK   37  A    between atoms: _84  and  _85
REMARK   38  A    between atoms: _87  and  _89
REMARK   39  A    between atoms: _89  and  _90
REMARK   40  A    between atoms: _89  and  _92
REMARK   41  A    between atoms: _92  and  _93
REMARK   42  A    between atoms: _96  and  _98
REMARK   43  A    between atoms: _98  and  _99
REMARK   44  A    between atoms: _98  and  _101
REMARK   45  A    between atoms: _101  and  _102
REMARK   46  A    between atoms: _104  and  _106
REMARK   47  A    between atoms: _106  and  _107
REMARK   48  A    between atoms: _106  and  _109
REMARK   49  A    between atoms: _109  and  _110
REMARK   50  A    between atoms: _110  and  _111
REMARK   51  A    between atoms: _111  and  _112
REMARK   52  A    between atoms: _112  and  _113
REMARK   53  A    between atoms: _117  and  _119
REMARK   54  A    between atoms: _119  and  _120
REMARK   55  A    between atoms: _119  and  _122
REMARK   56  A    between atoms: _122  and  _123
REMARK   57  A    between atoms: _126  and  _128
REMARK   58  A    between atoms: _128  and  _129
REMARK   59  A    between atoms: _128  and  _131
REMARK   60  A    between atoms: _131  and  _132
REMARK   61  A    between atoms: _132  and  _133
REMARK   62  A    between atoms: _136  and  _138
REMARK   63  A    between atoms: _138  and  _139
REMARK   64  A    between atoms: _142  and  _144
REMARK   65  A    between atoms: _144  and  _145
REMARK   66  A    between atoms: _144  and  _147
REMARK   67  A    between atoms: _150  and  _152
REMARK   68  A    between atoms: _152  and  _153
REMARK   69  A    between atoms: _152  and  _155
REMARK   70  A    between atoms: _155  and  _156
REMARK   71  A    between atoms: _158  and  _160
REMARK   72  A    between atoms: _160  and  _161
REMARK   73  A    between atoms: _163  and  _165
REMARK   74  A    between atoms: _165  and  _166
REMARK   75  A    between atoms: _165  and  _168
REMARK   76  A    between atoms: _168  and  _169
REMARK   77  A    between atoms: _174  and  _176
REMARK   78  A    between atoms: _176  and  _177
REMARK   79  A    between atoms: _176  and  _179
REMARK   80  A    between atoms: _179  and  _180
REMARK   81  A    between atoms: _185  and  _186
REMARK   82  A    between atoms: _188  and  _190
REMARK   83  A    between atoms: _190  and  _191
REMARK   84  A    between atoms: _190  and  _193
REMARK   85  A    between atoms: _195  and  _197
REMARK   86  A    between atoms: _197  and  _198
REMARK   87  A    between atoms: _197  and  _200
REMARK   88  A    between atoms: _200  and  _201
REMARK   89  A    between atoms: _204  and  _206
REMARK   90  A    between atoms: _206  and  _207
REMARK   91  A    between atoms: _206  and  _209
REMARK   92  A    between atoms: _209  and  _210
REMARK   93  A    between atoms: _213  and  _215
REMARK   94  A    between atoms: _215  and  _216
REMARK   95  A    between atoms: _215  and  _218
REMARK   96  A    between atoms: _218  and  _219
REMARK   97  A    between atoms: _219  and  _220
REMARK   98  A    between atoms: _220  and  _221
REMARK   99  A    between atoms: _221  and  _222
REMARK  100  A    between atoms: _226  and  _228
REMARK  101  A    between atoms: _228  and  _229
REMARK  102  A    between atoms: _228  and  _231
REMARK  103  A    between atoms: _231  and  _232
REMARK  104  A    between atoms: _232  and  _233
REMARK  105  A    between atoms: _233  and  _234
REMARK  106  A    between atoms: _234  and  _235
REMARK  107  A    between atoms: _239  and  _241
REMARK  108  A    between atoms: _241  and  _242
REMARK  109  A    between atoms: _241  and  _244
REMARK  110  A    between atoms: _244  and  _245
REMARK  111  A    between atoms: _245  and  _246
REMARK  112  A    between atoms: _246  and  _247
REMARK  113  A    between atoms: _256  and  _258
REMARK  114  A    between atoms: _258  and  _259
REMARK  115  A    between atoms: _258  and  _261
REMARK  116  A    between atoms: _261  and  _262
REMARK  117  A    between atoms: _265  and  _267
REMARK  118  A    between atoms: _267  and  _268
REMARK  119  A    between atoms: _271  and  _273
REMARK  120  A    between atoms: _273  and  _274
REMARK  121  A    between atoms: _273  and  _276
REMARK  122  A    between atoms: _276  and  _277
REMARK  123  A    between atoms: _277  and  _278
REMARK  124  A    between atoms: _283  and  _285
REMARK  125  A    between atoms: _285  and  _286
REMARK  126  A    between atoms: _285  and  _288
REMARK  127  A    between atoms: _288  and  _289
REMARK  128  A    between atoms: _289  and  _290
REMARK  129  A    between atoms: _293  and  _295
REMARK  130  A    between atoms: _295  and  _296
REMARK  131  A    between atoms: _298  and  _300
REMARK  132  A    between atoms: _300  and  _301
REMARK  133  A    between atoms: _300  and  _303
REMARK  134  A    between atoms: _305  and  _307
REMARK  135  A    between atoms: _307  and  _308
REMARK  136  A    between atoms: _307  and  _310
REMARK  137  A    between atoms: _310  and  _311
REMARK  138  A    between atoms: _314  and  _316
REMARK  139  A    between atoms: _316  and  _317
REMARK  140  A    between atoms: _316  and  _319
REMARK  141  A    between atoms: _322  and  _324
REMARK  142  A    between atoms: _324  and  _325
REMARK  143  A    between atoms: _328  and  _330
REMARK  144  A    between atoms: _330  and  _331
REMARK  145  A    between atoms: _330  and  _333
REMARK  146  A    between atoms: _333  and  _334
REMARK  147  A    between atoms: _336  and  _338
REMARK  148  A    between atoms: _338  and  _339
REMARK  149  A    between atoms: _338  and  _341
REMARK  150  A    between atoms: _341  and  _342
REMARK  151  A    between atoms: _345  and  _347
REMARK  152  A    between atoms: _347  and  _348
REMARK  153  A    between atoms: _347  and  _350
REMARK  154  A    between atoms: _350  and  _351
REMARK  155  A    between atoms: _356  and  _358
REMARK  156  A    between atoms: _358  and  _359
REMARK  157  A    between atoms: _358  and  _361
REMARK  158  A    between atoms: _361  and  _362
REMARK  159  A    between atoms: _362  and  _363
REMARK  160  A    between atoms: _363  and  _364
REMARK  161  A    between atoms: _373  and  _375
REMARK  162  A    between atoms: _375  and  _376
REMARK  163  A    between atoms: _378  and  _380
REMARK  164  A    between atoms: _380  and  _381
REMARK  165  A    between atoms: _380  and  _383
REMARK  166  A    between atoms: _386  and  _388
REMARK  167  A    between atoms: _388  and  _389
REMARK  168  A    between atoms: _388  and  _391
REMARK  169  A    between atoms: _391  and  _392
REMARK  170  A    between atoms: _395  and  _397
REMARK  171  A    between atoms: _397  and  _398
REMARK  172  A    between atoms: _397  and  _400
REMARK  173  A    between atoms: _400  and  _401
REMARK  174  A    between atoms: _401  and  _402
REMARK  175  A    between atoms: _402  and  _403
REMARK  176  A    between atoms: _403  and  _404
REMARK  177  A    between atoms: _408  and  _410
REMARK  178  A    between atoms: _410  and  _411
REMARK  179  A    between atoms: _410  and  _413
REMARK  180  A    between atoms: _413  and  _414
REMARK  181  A    between atoms: _414  and  _415
REMARK  182  A    between atoms: _415  and  _416
REMARK  183  A    between atoms: _416  and  _417
REMARK  184  A    between atoms: _421  and  _423
REMARK  185  A    between atoms: _423  and  _424
REMARK  186  A    between atoms: _423  and  _426
REMARK  187  A    between atoms: _426  and  _427
REMARK  188  A    between atoms: _432  and  _434
REMARK  189  A    between atoms: _434  and  _435
REMARK  190  A    between atoms: _434  and  _437
REMARK  191  A    between atoms: _437  and  _438
REMARK  192  A    between atoms: _443  and  _445
REMARK  193  A    between atoms: _445  and  _446
REMARK  194  A    between atoms: _449  and  _451
REMARK  195  A    between atoms: _451  and  _452
REMARK  196  A    between atoms: _451  and  _454
REMARK  197  A    between atoms: _454  and  _455
REMARK  198  A    between atoms: _460  and  _462
REMARK  199  A    between atoms: _462  and  _463
REMARK  200  A    between atoms: _466  and  _468
REMARK  201  A    between atoms: _468  and  _469
REMARK  202  A    between atoms: _472  and  _474
REMARK  203  A    between atoms: _474  and  _475
REMARK  204  A    between atoms: _474  and  _477
REMARK  205  A    between atoms: _477  and  _478
REMARK  206  A    between atoms: _483  and  _485
REMARK  207  A    between atoms: _485  and  _486
REMARK  208  A    between atoms: _485  and  _488
REMARK  209  A    between atoms: _488  and  _489
REMARK  210  A    between atoms: _492  and  _494
REMARK  211  A    between atoms: _494  and  _495
REMARK  212  A    between atoms: _497  and  _499
REMARK  213  A    between atoms: _499  and  _500
REMARK  214  A    between atoms: _499  and  _502
REMARK  215  A    between atoms: _502  and  _503
REMARK  216  A    between atoms: _503  and  _504
REMARK  217  A    between atoms: _507  and  _509
REMARK  218  A    between atoms: _509  and  _510
REMARK  219  A    between atoms: _509  and  _512
REMARK  220  A    between atoms: _512  and  _513
REMARK  221  A    between atoms: _516  and  _518
REMARK  222  A    between atoms: _518  and  _519
REMARK  223  A    between atoms: _518  and  _521
REMARK  224  A    between atoms: _521  and  _522
REMARK  225  A    between atoms: _524  and  _526
REMARK  226  A    between atoms: _526  and  _527
REMARK  227  A    between atoms: _526  and  _529
REMARK  228  A    between atoms: _529  and  _530
REMARK  229  A    between atoms: _533  and  _535
REMARK  230  A    between atoms: _535  and  _536
REMARK  231  A    between atoms: _535  and  _538
REMARK  232  A    between atoms: _538  and  _539
REMARK  233  A    between atoms: _539  and  _540
REMARK  234  A    between atoms: _542  and  _544
REMARK  235  A    between atoms: _544  and  _545
REMARK  236  A    between atoms: _548  and  _550
REMARK  237  A    between atoms: _550  and  _551
REMARK  238  A    between atoms: _554  and  _556
REMARK  239  A    between atoms: _556  and  _557
REMARK  240  A    between atoms: _556  and  _559
REMARK  241  A    between atoms: _559  and  _560
REMARK  242  A    between atoms: _563  and  _565
REMARK  243  A    between atoms: _565  and  _566
REMARK  244  A    between atoms: _569  and  _571
REMARK  245  A    between atoms: _571  and  _572
REMARK                            x       y       z     vdW  Elec       q    Type
REMARK                         _______ _______ _______ _____ _____    ______ ____
ROOT
ATOM      1  O   HOH     1      75.247  10.713  -7.318  0.00  0.00    +0.000 OA
ENDROOT
TORSDOF 0
REMARK  Name = ../refined-set-2016/3ccz/3ccz_pocket.pdb
REMARK  245 active torsions:
REMARK  status: ('A' for Active; 'I' for Inactive)
REMARK    1  A    between atoms: _1  and  _3
REMARK    2  A    between atoms: _3  and  _4
REMARK    3  A    between atoms: _3  and  _6
REMARK    4  A    between atoms: _6  and  _7
REMARK    5  A    between atoms: _7  and  _8
REMARK    6  A    between atoms: _11  and  _13
REMARK    7  A    between atoms: _13  and  _14
REMARK    8  A    between atoms: _13  and  _16
REMARK    9  A    between atoms: _16  and  _17
REMARK   10  A    between atoms: _20  and  _22
REMARK   11  A    between atoms: _22  and  _23
REMARK   12  A    between atoms: _22  and  _25
REMARK   13  A    between atoms: _25  and  _26
REMARK   14  A    between atoms: _26  and  _27
REMARK   15  A    between atoms: _27  and  _28
REMARK   16  A    between atoms: _37  and  _39
REMARK   17  A    between atoms: _39  and  _40
REMARK   18  A    between atoms: _43  and  _44
REMARK   19  A    between atoms: _49  and  _51
REMARK   20  A    between atoms: _51  and  _52
REMARK   21  A    between atoms: _51  and  _54
REMARK   22  A    between atoms: _54  and  _55
REMARK   23  A    between atoms: _55  and  _56
REMARK   24  A    between atoms: _58  and  _60
REMARK   25  A    between atoms: _60  and  _61
REMARK   26  A    between atoms: _60  and  _63
REMARK   27  A    between atoms: _63  and  _64
REMARK   28  A    between atoms: _64  and  _65
REMARK   29  A    between atoms: _67  and  _69
REMARK   30  A    between atoms: _69  and  _70
REMARK   31  A    between atoms: _69  and  _72
REMARK   32  A    between atoms: _72  and  _73
REMARK   33  A    between atoms: _78  and  _80
REMARK   34  A    between atoms: _80  and  _81
REMARK   35  A    between atoms: _80  and  _83
REMARK   36  A    between atoms: _83  and  _84
REMARK   37  A    between atoms: _84  and  _85
REMARK   38  A    between atoms: _87  and  _89
REMARK   39  A    between atoms: _89  and  _90
REMARK   40  A    between atoms: _89  and  _92
REMARK   41  A    between atoms: _92  and  _93
REMARK   42  A    between atoms: _96  and  _98
REMARK   43  A    between atoms: _98  and  _99
REMARK   44  A    between atoms: _98  and  _101
REMARK   45  A    between atoms: _101  and  _102
REMARK   46  A    between atoms: _104  and  _106
REMARK   47  A    between atoms: _106  and  _107
REMARK   48  A    between atoms: _106  and  _109
REMARK   49  A    between atoms: _109  and  _110
REMARK   50  A    between atoms: _110  and  _111
REMARK   51  A    between atoms: _111  and  _112
REMARK   52  A    between atoms: _112  and  _113
REMARK   53  A    between atoms: _117  and  _119
REMARK   54  A    between atoms: _119  and  _120
REMARK   55  A    between atoms: _119  and  _122
REMARK   56  A    between atoms: _122  and  _123
REMARK   57  A    between atoms: _126  and  _128
REMARK   58  A    between atoms: _128  and  _129
REMARK   59  A    between atoms: _128  and  _131
REMARK   60  A    between atoms: _131  and  _132
REMARK   61  A    between atoms: _132  and  _133
REMARK   62  A    between atoms: _136  and  _138
REMARK   63  A    between atoms: _138  and  _139
REMARK   64  A    between atoms: _142  and  _144
REMARK   65  A    between atoms: _144  and  _145
REMARK   66  A    between atoms: _144  and  _147
REMARK   67  A    between atoms: _150  and  _152
REMARK   68  A    between atoms: _152  and  _153
REMARK   69  A    between atoms: _152  and  _155
REMARK   70  A    between atoms: _155  and  _156
REMARK   71  A    between atoms: _158  and  _160
REMARK   72  A    between atoms: _160  and  _161
REMARK   73  A    between atoms: _163  and  _165
REMARK   74  A    between atoms: _165  and  _166
REMARK   75  A    between atoms: _165  and  _168
REMARK   76  A    between atoms: _168  and  _169
REMARK   77  A    between atoms: _174  and  _176
REMARK   78  A    between atoms: _176  and  _177
REMARK   79  A    between atoms: _176  and  _179
REMARK   80  A    between atoms: _179  and  _180
REMARK   81  A    between atoms: _185  and  _186
REMARK   82  A    between atoms: _188  and  _190
REMARK   83  A    between atoms: _190  and  _191
REMARK   84  A    between atoms: _190  and  _193
REMARK   85  A    between atoms: _195  and  _197
REMARK   86  A    between atoms: _197  and  _198
REMARK   87  A    between atoms: _197  and  _200
REMARK   88  A    between atoms: _200  and  _201
REMARK   89  A    between atoms: _204  and  _206
REMARK   90  A    between atoms: _206  and  _207
REMARK   91  A    between atoms: _206  and  _209
REMARK   92  A    between atoms: _209  and  _210
REMARK   93  A    between atoms: _213  and  _215
REMARK   94  A    between atoms: _215  and  _216
REMARK   95  A    between atoms: _215  and  _218
REMARK   96  A    between atoms: _218  and  _219
REMARK   97  A    between atoms: _219  and  _220
REMARK   98  A    between atoms: _220  and  _221
REMARK   99  A    between atoms: _221  and  _222
REMARK  100  A    between atoms: _226  and  _228
REMARK  101  A    between atoms: _228  and  _229
REMARK  102  A    between atoms: _228  and  _231
REMARK  103  A    between atoms: _231  and  _232
REMARK  104  A    between atoms: _232  and  _233
REMARK  105  A    between atoms: _233  and  _234
REMARK  106  A    between atoms: _234  and  _235
REMARK  107  A    between atoms: _239  and  _241
REMARK  108  A    between atoms: _241  and  _242
REMARK  109  A    between atoms: _241  and  _244
REMARK  110  A    between atoms: _244  and  _245
REMARK  111  A    between atoms: _245  and  _246
REMARK  112  A    between atoms: _246  and  _247
REMARK  113  A    between atoms: _256  and  _258
REMARK  114  A    between atoms: _258  and  _259
REMARK  115  A    between atoms: _258  and  _261
REMARK  116  A    between atoms: _261  and  _262
REMARK  117  A    between atoms: _265  and  _267
REMARK  118  A    between atoms: _267  and  _268
REMARK  119  A    between atoms: _271  and  _273
REMARK  120  A    between atoms: _273  and  _274
REMARK  121  A    between atoms: _273  and  _276
REMARK  122  A    between atoms: _276  and  _277
REMARK  123  A    between atoms: _277  and  _278
REMARK  124  A    between atoms: _283  and  _285
REMARK  125  A    between atoms: _285  and  _286
REMARK  126  A    between atoms: _285  and  _288
REMARK  127  A    between atoms: _288  and  _289
REMARK  128  A    between atoms: _289  and  _290
REMARK  129  A    between atoms: _293  and  _295
REMARK  130  A    between atoms: _295  and  _296
REMARK  131  A    between atoms: _298  and  _300
REMARK  132  A    between atoms: _300  and  _301
REMARK  133  A    between atoms: _300  and  _303
REMARK  134  A    between atoms: _305  and  _307
REMARK  135  A    between atoms: _307  and  _308
REMARK  136  A    between atoms: _307  and  _310
REMARK  137  A    between atoms: _310  and  _311
REMARK  138  A    between atoms: _314  and  _316
REMARK  139  A    between atoms: _316  and  _317
REMARK  140  A    between atoms: _316  and  _319
REMARK  141  A    between atoms: _322  and  _324
REMARK  142  A    between atoms: _324  and  _325
REMARK  143  A    between atoms: _328  and  _330
REMARK  144  A    between atoms: _330  and  _331
REMARK  145  A    between atoms: _330  and  _333
REMARK  146  A    between atoms: _333  and  _334
REMARK  147  A    between atoms: _336  and  _338
REMARK  148  A    between atoms: _338  and  _339
REMARK  149  A    between atoms: _338  and  _341
REMARK  150  A    between atoms: _341  and  _342
REMARK  151  A    between atoms: _345  and  _347
REMARK  152  A    between atoms: _347  and  _348
REMARK  153  A    between atoms: _347  and  _350
REMARK  154  A    between atoms: _350  and  _351
REMARK  155  A    between atoms: _356  and  _358
REMARK  156  A    between atoms: _358  and  _359
REMARK  157  A    between atoms: _358  and  _361
REMARK  158  A    between atoms: _361  and  _362
REMARK  159  A    between atoms: _362  and  _363
REMARK  160  A    between atoms: _363  and  _364
REMARK  161  A    between atoms: _373  and  _375
REMARK  162  A    between atoms: _375  and  _376
REMARK  163  A    between atoms: _378  and  _380
REMARK  164  A    between atoms: _380  and  _381
REMARK  165  A    between atoms: _380  and  _383
REMARK  166  A    between atoms: _386  and  _388
REMARK  167  A    between atoms: _388  and  _389
REMARK  168  A    between atoms: _388  and  _391
REMARK  169  A    between atoms: _391  and  _392
REMARK  170  A    between atoms: _395  and  _397
REMARK  171  A    between atoms: _397  and  _398
REMARK  172  A    between atoms: _397  and  _400
REMARK  173  A    between atoms: _400  and  _401
REMARK  174  A    between atoms: _401  and  _402
REMARK  175  A    between atoms: _402  and  _403
REMARK  176  A    between atoms: _403  and  _404
REMARK  177  A    between atoms: _408  and  _410
REMARK  178  A    between atoms: _410  and  _411
REMARK  179  A    between atoms: _410  and  _413
REMARK  180  A    between atoms: _413  and  _414
REMARK  181  A    between atoms: _414  and  _415
REMARK  182  A    between atoms: _415  and  _416
REMARK  183  A    between atoms: _416  and  _417
REMARK  184  A    between atoms: _421  and  _423
REMARK  185  A    between atoms: _423  and  _424
REMARK  186  A    between atoms: _423  and  _426
REMARK  187  A    between atoms: _426  and  _427
REMARK  188  A    between atoms: _432  and  _434
REMARK  189  A    between atoms: _434  and  _435
REMARK  190  A    between atoms: _434  and  _437
REMARK  191  A    between atoms: _437  and  _438
REMARK  192  A    between atoms: _443  and  _445
REMARK  193  A    between atoms: _445  and  _446
REMARK  194  A    between atoms: _449  and  _451
REMARK  195  A    between atoms: _451  and  _452
REMARK  196  A    between atoms: _451  and  _454
REMARK  197  A    between atoms: _454  and  _455
REMARK  198  A    between atoms: _460  and  _462
REMARK  199  A    between atoms: _462  and  _463
REMARK  200  A    between atoms: _466  and  _468
REMARK  201  A    between atoms: _468  and  _469
REMARK  202  A    between atoms: _472  and  _474
REMARK  203  A    between atoms: _474  and  _475
REMARK  204  A    between atoms: _474  and  _477
REMARK  205  A    between atoms: _477  and  _478
REMARK  206  A    between atoms: _483  and  _485
REMARK  207  A    between atoms: _485  and  _486
REMARK  208  A    between atoms: _485  and  _488
REMARK  209  A    between atoms: _488  and  _489
REMARK  210  A    between atoms: _492  and  _494
REMARK  211  A    between atoms: _494  and  _495
REMARK  212  A    between atoms: _497  and  _499
REMARK  213  A    between atoms: _499  and  _500
REMARK  214  A    between atoms: _499  and  _502
REMARK  215  A    between atoms: _502  and  _503
REMARK  216  A    between atoms: _503  and  _504
REMARK  217  A    between atoms: _507  and  _509
REMARK  218  A    between atoms: _509  and  _510
REMARK  219  A    between atoms: _509  and  _512
REMARK  220  A    between atoms: _512  and  _513
REMARK  221  A    between atoms: _516  and  _518
REMARK  222  A    between atoms: _518  and  _519
REMARK  223  A    between atoms: _518  and  _521
REMARK  224  A    between atoms: _521  and  _522
REMARK  225  A    between atoms: _524  and  _526
REMARK  226  A    between atoms: _526  and  _527
REMARK  227  A    between atoms: _526  and  _529
REMARK  228  A    between atoms: _529  and  _530
REMARK  229  A    between atoms: _533  and  _535
REMARK  230  A    between atoms: _535  and  _536
REMARK  231  A    between atoms: _535  and  _538
REMARK  232  A    between atoms: _538  and  _539
REMARK  233  A    between atoms: _539  and  _540
REMARK  234  A    between atoms: _542  and  _544
REMARK  235  A    between atoms: _544  and  _545
REMARK  236  A    between atoms: _548  and  _550
REMARK  237  A    between atoms: _550  and  _551
REMARK  238  A    between atoms: _554  and  _556
REMARK  239  A    between atoms: _556  and  _557
REMARK  240  A    between atoms: _556  and  _559
REMARK  241  A    between atoms: _559  and  _560
REMARK  242  A    between atoms: _563  and  _565
REMARK  243  A    between atoms: _565  and  _566
REMARK  244  A    between atoms: _569  and  _571
REMARK  245  A    between atoms: _571  and  _572
REMARK                            x       y       z     vdW  Elec       q    Type
REMARK                         _______ _______ _______ _____ _____    ______ ____
ROOT
ATOM      1  O   HOH     1      72.597  10.344  -6.839  0.00  0.00    +0.000 OA
ENDROOT
TORSDOF 0
REMARK  Name = ../refined-set-2016/3ccz/3ccz_pocket.pdb
REMARK  245 active torsions:
REMARK  status: ('A' for Active; 'I' for Inactive)
REMARK    1  A    between atoms: _1  and  _3
REMARK    2  A    between atoms: _3  and  _4
REMARK    3  A    between atoms: _3  and  _6
REMARK    4  A    between atoms: _6  and  _7
REMARK    5  A    between atoms: _7  and  _8
REMARK    6  A    between atoms: _11  and  _13
REMARK    7  A    between atoms: _13  and  _14
REMARK    8  A    between atoms: _13  and  _16
REMARK    9  A    between atoms: _16  and  _17
REMARK   10  A    between atoms: _20  and  _22
REMARK   11  A    between atoms: _22  and  _23
REMARK   12  A    between atoms: _22  and  _25
REMARK   13  A    between atoms: _25  and  _26
REMARK   14  A    between atoms: _26  and  _27
REMARK   15  A    between atoms: _27  and  _28
REMARK   16  A    between atoms: _37  and  _39
REMARK   17  A    between atoms: _39  and  _40
REMARK   18  A    between atoms: _43  and  _44
REMARK   19  A    between atoms: _49  and  _51
REMARK   20  A    between atoms: _51  and  _52
REMARK   21  A    between atoms: _51  and  _54
REMARK   22  A    between atoms: _54  and  _55
REMARK   23  A    between atoms: _55  and  _56
REMARK   24  A    between atoms: _58  and  _60
REMARK   25  A    between atoms: _60  and  _61
REMARK   26  A    between atoms: _60  and  _63
REMARK   27  A    between atoms: _63  and  _64
REMARK   28  A    between atoms: _64  and  _65
REMARK   29  A    between atoms: _67  and  _69
REMARK   30  A    between atoms: _69  and  _70
REMARK   31  A    between atoms: _69  and  _72
REMARK   32  A    between atoms: _72  and  _73
REMARK   33  A    between atoms: _78  and  _80
REMARK   34  A    between atoms: _80  and  _81
REMARK   35  A    between atoms: _80  and  _83
REMARK   36  A    between atoms: _83  and  _84
REMARK   37  A    between atoms: _84  and  _85
REMARK   38  A    between atoms: _87  and  _89
REMARK   39  A    between atoms: _89  and  _90
REMARK   40  A    between atoms: _89  and  _92
REMARK   41  A    between atoms: _92  and  _93
REMARK   42  A    between atoms: _96  and  _98
REMARK   43  A    between atoms: _98  and  _99
REMARK   44  A    between atoms: _98  and  _101
REMARK   45  A    between atoms: _101  and  _102
REMARK   46  A    between atoms: _104  and  _106
REMARK   47  A    between atoms: _106  and  _107
REMARK   48  A    between atoms: _106  and  _109
REMARK   49  A    between atoms: _109  and  _110
REMARK   50  A    between atoms: _110  and  _111
REMARK   51  A    between atoms: _111  and  _112
REMARK   52  A    between atoms: _112  and  _113
REMARK   53  A    between atoms: _117  and  _119
REMARK   54  A    between atoms: _119  and  _120
REMARK   55  A    between atoms: _119  and  _122
REMARK   56  A    between atoms: _122  and  _123
REMARK   57  A    between atoms: _126  and  _128
REMARK   58  A    between atoms: _128  and  _129
REMARK   59  A    between atoms: _128  and  _131
REMARK   60  A    between atoms: _131  and  _132
REMARK   61  A    between atoms: _132  and  _133
REMARK   62  A    between atoms: _136  and  _138
REMARK   63  A    between atoms: _138  and  _139
REMARK   64  A    between atoms: _142  and  _144
REMARK   65  A    between atoms: _144  and  _145
REMARK   66  A    between atoms: _144  and  _147
REMARK   67  A    between atoms: _150  and  _152
REMARK   68  A    between atoms: _152  and  _153
REMARK   69  A    between atoms: _152  and  _155
REMARK   70  A    between atoms: _155  and  _156
REMARK   71  A    between atoms: _158  and  _160
REMARK   72  A    between atoms: _160  and  _161
REMARK   73  A    between atoms: _163  and  _165
REMARK   74  A    between atoms: _165  and  _166
REMARK   75  A    between atoms: _165  and  _168
REMARK   76  A    between atoms: _168  and  _169
REMARK   77  A    between atoms: _174  and  _176
REMARK   78  A    between atoms: _176  and  _177
REMARK   79  A    between atoms: _176  and  _179
REMARK   80  A    between atoms: _179  and  _180
REMARK   81  A    between atoms: _185  and  _186
REMARK   82  A    between atoms: _188  and  _190
REMARK   83  A    between atoms: _190  and  _191
REMARK   84  A    between atoms: _190  and  _193
REMARK   85  A    between atoms: _195  and  _197
REMARK   86  A    between atoms: _197  and  _198
REMARK   87  A    between atoms: _197  and  _200
REMARK   88  A    between atoms: _200  and  _201
REMARK   89  A    between atoms: _204  and  _206
REMARK   90  A    between atoms: _206  and  _207
REMARK   91  A    between atoms: _206  and  _209
REMARK   92  A    between atoms: _209  and  _210
REMARK   93  A    between atoms: _213  and  _215
REMARK   94  A    between atoms: _215  and  _216
REMARK   95  A    between atoms: _215  and  _218
REMARK   96  A    between atoms: _218  and  _219
REMARK   97  A    between atoms: _219  and  _220
REMARK   98  A    between atoms: _220  and  _221
REMARK   99  A    between atoms: _221  and  _222
REMARK  100  A    between atoms: _226  and  _228
REMARK  101  A    between atoms: _228  and  _229
REMARK  102  A    between atoms: _228  and  _231
REMARK  103  A    between atoms: _231  and  _232
REMARK  104  A    between atoms: _232  and  _233
REMARK  105  A    between atoms: _233  and  _234
REMARK  106  A    between atoms: _234  and  _235
REMARK  107  A    between atoms: _239  and  _241
REMARK  108  A    between atoms: _241  and  _242
REMARK  109  A    between atoms: _241  and  _244
REMARK  110  A    between atoms: _244  and  _245
REMARK  111  A    between atoms: _245  and  _246
REMARK  112  A    between atoms: _246  and  _247
REMARK  113  A    between atoms: _256  and  _258
REMARK  114  A    between atoms: _258  and  _259
REMARK  115  A    between atoms: _258  and  _261
REMARK  116  A    between atoms: _261  and  _262
REMARK  117  A    between atoms: _265  and  _267
REMARK  118  A    between atoms: _267  and  _268
REMARK  119  A    between atoms: _271  and  _273
REMARK  120  A    between atoms: _273  and  _274
REMARK  121  A    between atoms: _273  and  _276
REMARK  122  A    between atoms: _276  and  _277
REMARK  123  A    between atoms: _277  and  _278
REMARK  124  A    between atoms: _283  and  _285
REMARK  125  A    between atoms: _285  and  _286
REMARK  126  A    between atoms: _285  and  _288
REMARK  127  A    between atoms: _288  and  _289
REMARK  128  A    between atoms: _289  and  _290
REMARK  129  A    between atoms: _293  and  _295
REMARK  130  A    between atoms: _295  and  _296
REMARK  131  A    between atoms: _298  and  _300
REMARK  132  A    between atoms: _300  and  _301
REMARK  133  A    between atoms: _300  and  _303
REMARK  134  A    between atoms: _305  and  _307
REMARK  135  A    between atoms: _307  and  _308
REMARK  136  A    between atoms: _307  and  _310
REMARK  137  A    between atoms: _310  and  _311
REMARK  138  A    between atoms: _314  and  _316
REMARK  139  A    between atoms: _316  and  _317
REMARK  140  A    between atoms: _316  and  _319
REMARK  141  A    between atoms: _322  and  _324
REMARK  142  A    between atoms: _324  and  _325
REMARK  143  A    between atoms: _328  and  _330
REMARK  144  A    between atoms: _330  and  _331
REMARK  145  A    between atoms: _330  and  _333
REMARK  146  A    between atoms: _333  and  _334
REMARK  147  A    between atoms: _336  and  _338
REMARK  148  A    between atoms: _338  and  _339
REMARK  149  A    between atoms: _338  and  _341
REMARK  150  A    between atoms: _341  and  _342
REMARK  151  A    between atoms: _345  and  _347
REMARK  152  A    between atoms: _347  and  _348
REMARK  153  A    between atoms: _347  and  _350
REMARK  154  A    between atoms: _350  and  _351
REMARK  155  A    between atoms: _356  and  _358
REMARK  156  A    between atoms: _358  and  _359
REMARK  157  A    between atoms: _358  and  _361
REMARK  158  A    between atoms: _361  and  _362
REMARK  159  A    between atoms: _362  and  _363
REMARK  160  A    between atoms: _363  and  _364
REMARK  161  A    between atoms: _373  and  _375
REMARK  162  A    between atoms: _375  and  _376
REMARK  163  A    between atoms: _378  and  _380
REMARK  164  A    between atoms: _380  and  _381
REMARK  165  A    between atoms: _380  and  _383
REMARK  166  A    between atoms: _386  and  _388
REMARK  167  A    between atoms: _388  and  _389
REMARK  168  A    between atoms: _388  and  _391
REMARK  169  A    between atoms: _391  and  _392
REMARK  170  A    between atoms: _395  and  _397
REMARK  171  A    between atoms: _397  and  _398
REMARK  172  A    between atoms: _397  and  _400
REMARK  173  A    between atoms: _400  and  _401
REMARK  174  A    between atoms: _401  and  _402
REMARK  175  A    between atoms: _402  and  _403
REMARK  176  A    between atoms: _403  and  _404
REMARK  177  A    between atoms: _408  and  _410
REMARK  178  A    between atoms: _410  and  _411
REMARK  179  A    between atoms: _410  and  _413
REMARK  180  A    between atoms: _413  and  _414
REMARK  181  A    between atoms: _414  and  _415
REMARK  182  A    between atoms: _415  and  _416
REMARK  183  A    between atoms: _416  and  _417
REMARK  184  A    between atoms: _421  and  _423
REMARK  185  A    between atoms: _423  and  _424
REMARK  186  A    between atoms: _423  and  _426
REMARK  187  A    between atoms: _426  and  _427
REMARK  188  A    between atoms: _432  and  _434
REMARK  189  A    between atoms: _434  and  _435
REMARK  190  A    between atoms: _434  and  _437
REMARK  191  A    between atoms: _437  and  _438
REMARK  192  A    between atoms: _443  and  _445
REMARK  193  A    between atoms: _445  and  _446
REMARK  194  A    between atoms: _449  and  _451
REMARK  195  A    between atoms: _451  and  _452
REMARK  196  A    between atoms: _451  and  _454
REMARK  197  A    between atoms: _454  and  _455
REMARK  198  A    between atoms: _460  and  _462
REMARK  199  A    between atoms: _462  and  _463
REMARK  200  A    between atoms: _466  and  _468
REMARK  201  A    between atoms: _468  and  _469
REMARK  202  A    between atoms: _472  and  _474
REMARK  203  A    between atoms: _474  and  _475
REMARK  204  A    between atoms: _474  and  _477
REMARK  205  A    between atoms: _477  and  _478
REMARK  206  A    between atoms: _483  and  _485
REMARK  207  A    between atoms: _485  and  _486
REMARK  208  A    between atoms: _485  and  _488
REMARK  209  A    between atoms: _488  and  _489
REMARK  210  A    between atoms: _492  and  _494
REMARK  211  A    between atoms: _494  and  _495
REMARK  212  A    between atoms: _497  and  _499
REMARK  213  A    between atoms: _499  and  _500
REMARK  214  A    between atoms: _499  and  _502
REMARK  215  A    between atoms: _502  and  _503
REMARK  216  A    between atoms: _503  and  _504
REMARK  217  A    between atoms: _507  and  _509
REMARK  218  A    between atoms: _509  and  _510
REMARK  219  A    between atoms: _509  and  _512
REMARK  220  A    between atoms: _512  and  _513
REMARK  221  A    between atoms: _516  and  _518
REMARK  222  A    between atoms: _518  and  _519
REMARK  223  A    between atoms: _518  and  _521
REMARK  224  A    between atoms: _521  and  _522
REMARK  225  A    between atoms: _524  and  _526
REMARK  226  A    between atoms: _526  and  _527
REMARK  227  A    between atoms: _526  and  _529
REMARK  228  A    between atoms: _529  and  _530
REMARK  229  A    between atoms: _533  and  _535
REMARK  230  A    between atoms: _535  and  _536
REMARK  231  A    between atoms: _535  and  _538
REMARK  232  A    between atoms: _538  and  _539
REMARK  233  A    between atoms: _539  and  _540
REMARK  234  A    between atoms: _542  and  _544
REMARK  235  A    between atoms: _544  and  _545
REMARK  236  A    between atoms: _548  and  _550
REMARK  237  A    between atoms: _550  and  _551
REMARK  238  A    between atoms: _554  and  _556
REMARK  239  A    between atoms: _556  and  _557
REMARK  240  A    between atoms: _556  and  _559
REMARK  241  A    between atoms: _559  and  _560
REMARK  242  A    between atoms: _563  and  _565
REMARK  243  A    between atoms: _565  and  _566
REMARK  244  A    between atoms: _569  and  _571
REMARK  245  A    between atoms: _571  and  _572
REMARK                            x       y       z     vdW  Elec       q    Type
REMARK                         _______ _______ _______ _____ _____    ______ ____
ROOT
ATOM      1  O   HOH     1      78.179   9.918  -9.436  0.00  0.00    +0.000 OA
ENDROOT
TORSDOF 0
REMARK  Name = ../refined-set-2016/3ccz/3ccz_pocket.pdb
REMARK  245 active torsions:
REMARK  status: ('A' for Active; 'I' for Inactive)
REMARK    1  A    between atoms: _1  and  _3
REMARK    2  A    between atoms: _3  and  _4
REMARK    3  A    between atoms: _3  and  _6
REMARK    4  A    between atoms: _6  and  _7
REMARK    5  A    between atoms: _7  and  _8
REMARK    6  A    between atoms: _11  and  _13
REMARK    7  A    between atoms: _13  and  _14
REMARK    8  A    between atoms: _13  and  _16
REMARK    9  A    between atoms: _16  and  _17
REMARK   10  A    between atoms: _20  and  _22
REMARK   11  A    between atoms: _22  and  _23
REMARK   12  A    between atoms: _22  and  _25
REMARK   13  A    between atoms: _25  and  _26
REMARK   14  A    between atoms: _26  and  _27
REMARK   15  A    between atoms: _27  and  _28
REMARK   16  A    between atoms: _37  and  _39
REMARK   17  A    between atoms: _39  and  _40
REMARK   18  A    between atoms: _43  and  _44
REMARK   19  A    between atoms: _49  and  _51
REMARK   20  A    between atoms: _51  and  _52
REMARK   21  A    between atoms: _51  and  _54
REMARK   22  A    between atoms: _54  and  _55
REMARK   23  A    between atoms: _55  and  _56
REMARK   24  A    between atoms: _58  and  _60
REMARK   25  A    between atoms: _60  and  _61
REMARK   26  A    between atoms: _60  and  _63
REMARK   27  A    between atoms: _63  and  _64
REMARK   28  A    between atoms: _64  and  _65
REMARK   29  A    between atoms: _67  and  _69
REMARK   30  A    between atoms: _69  and  _70
REMARK   31  A    between atoms: _69  and  _72
REMARK   32  A    between atoms: _72  and  _73
REMARK   33  A    between atoms: _78  and  _80
REMARK   34  A    between atoms: _80  and  _81
REMARK   35  A    between atoms: _80  and  _83
REMARK   36  A    between atoms: _83  and  _84
REMARK   37  A    between atoms: _84  and  _85
REMARK   38  A    between atoms: _87  and  _89
REMARK   39  A    between atoms: _89  and  _90
REMARK   40  A    between atoms: _89  and  _92
REMARK   41  A    between atoms: _92  and  _93
REMARK   42  A    between atoms: _96  and  _98
REMARK   43  A    between atoms: _98  and  _99
REMARK   44  A    between atoms: _98  and  _101
REMARK   45  A    between atoms: _101  and  _102
REMARK   46  A    between atoms: _104  and  _106
REMARK   47  A    between atoms: _106  and  _107
REMARK   48  A    between atoms: _106  and  _109
REMARK   49  A    between atoms: _109  and  _110
REMARK   50  A    between atoms: _110  and  _111
REMARK   51  A    between atoms: _111  and  _112
REMARK   52  A    between atoms: _112  and  _113
REMARK   53  A    between atoms: _117  and  _119
REMARK   54  A    between atoms: _119  and  _120
REMARK   55  A    between atoms: _119  and  _122
REMARK   56  A    between atoms: _122  and  _123
REMARK   57  A    between atoms: _126  and  _128
REMARK   58  A    between atoms: _128  and  _129
REMARK   59  A    between atoms: _128  and  _131
REMARK   60  A    between atoms: _131  and  _132
REMARK   61  A    between atoms: _132  and  _133
REMARK   62  A    between atoms: _136  and  _138
REMARK   63  A    between atoms: _138  and  _139
REMARK   64  A    between atoms: _142  and  _144
REMARK   65  A    between atoms: _144  and  _145
REMARK   66  A    between atoms: _144  and  _147
REMARK   67  A    between atoms: _150  and  _152
REMARK   68  A    between atoms: _152  and  _153
REMARK   69  A    between atoms: _152  and  _155
REMARK   70  A    between atoms: _155  and  _156
REMARK   71  A    between atoms: _158  and  _160
REMARK   72  A    between atoms: _160  and  _161
REMARK   73  A    between atoms: _163  and  _165
REMARK   74  A    between atoms: _165  and  _166
REMARK   75  A    between atoms: _165  and  _168
REMARK   76  A    between atoms: _168  and  _169
REMARK   77  A    between atoms: _174  and  _176
REMARK   78  A    between atoms: _176  and  _177
REMARK   79  A    between atoms: _176  and  _179
REMARK   80  A    between atoms: _179  and  _180
REMARK   81  A    between atoms: _185  and  _186
REMARK   82  A    between atoms: _188  and  _190
REMARK   83  A    between atoms: _190  and  _191
REMARK   84  A    between atoms: _190  and  _193
REMARK   85  A    between atoms: _195  and  _197
REMARK   86  A    between atoms: _197  and  _198
REMARK   87  A    between atoms: _197  and  _200
REMARK   88  A    between atoms: _200  and  _201
REMARK   89  A    between atoms: _204  and  _206
REMARK   90  A    between atoms: _206  and  _207
REMARK   91  A    between atoms: _206  and  _209
REMARK   92  A    between atoms: _209  and  _210
REMARK   93  A    between atoms: _213  and  _215
REMARK   94  A    between atoms: _215  and  _216
REMARK   95  A    between atoms: _215  and  _218
REMARK   96  A    between atoms: _218  and  _219
REMARK   97  A    between atoms: _219  and  _220
REMARK   98  A    between atoms: _220  and  _221
REMARK   99  A    between atoms: _221  and  _222
REMARK  100  A    between atoms: _226  and  _228
REMARK  101  A    between atoms: _228  and  _229
REMARK  102  A    between atoms: _228  and  _231
REMARK  103  A    between atoms: _231  and  _232
REMARK  104  A    between atoms: _232  and  _233
REMARK  105  A    between atoms: _233  and  _234
REMARK  106  A    between atoms: _234  and  _235
REMARK  107  A    between atoms: _239  and  _241
REMARK  108  A    between atoms: _241  and  _242
REMARK  109  A    between atoms: _241  and  _244
REMARK  110  A    between atoms: _244  and  _245
REMARK  111  A    between atoms: _245  and  _246
REMARK  112  A    between atoms: _246  and  _247
REMARK  113  A    between atoms: _256  and  _258
REMARK  114  A    between atoms: _258  and  _259
REMARK  115  A    between atoms: _258  and  _261
REMARK  116  A    between atoms: _261  and  _262
REMARK  117  A    between atoms: _265  and  _267
REMARK  118  A    between atoms: _267  and  _268
REMARK  119  A    between atoms: _271  and  _273
REMARK  120  A    between atoms: _273  and  _274
REMARK  121  A    between atoms: _273  and  _276
REMARK  122  A    between atoms: _276  and  _277
REMARK  123  A    between atoms: _277  and  _278
REMARK  124  A    between atoms: _283  and  _285
REMARK  125  A    between atoms: _285  and  _286
REMARK  126  A    between atoms: _285  and  _288
REMARK  127  A    between atoms: _288  and  _289
REMARK  128  A    between atoms: _289  and  _290
REMARK  129  A    between atoms: _293  and  _295
REMARK  130  A    between atoms: _295  and  _296
REMARK  131  A    between atoms: _298  and  _300
REMARK  132  A    between atoms: _300  and  _301
REMARK  133  A    between atoms: _300  and  _303
REMARK  134  A    between atoms: _305  and  _307
REMARK  135  A    between atoms: _307  and  _308
REMARK  136  A    between atoms: _307  and  _310
REMARK  137  A    between atoms: _310  and  _311
REMARK  138  A    between atoms: _314  and  _316
REMARK  139  A    between atoms: _316  and  _317
REMARK  140  A    between atoms: _316  and  _319
REMARK  141  A    between atoms: _322  and  _324
REMARK  142  A    between atoms: _324  and  _325
REMARK  143  A    between atoms: _328  and  _330
REMARK  144  A    between atoms: _330  and  _331
REMARK  145  A    between atoms: _330  and  _333
REMARK  146  A    between atoms: _333  and  _334
REMARK  147  A    between atoms: _336  and  _338
REMARK  148  A    between atoms: _338  and  _339
REMARK  149  A    between atoms: _338  and  _341
REMARK  150  A    between atoms: _341  and  _342
REMARK  151  A    between atoms: _345  and  _347
REMARK  152  A    between atoms: _347  and  _348
REMARK  153  A    between atoms: _347  and  _350
REMARK  154  A    between atoms: _350  and  _351
REMARK  155  A    between atoms: _356  and  _358
REMARK  156  A    between atoms: _358  and  _359
REMARK  157  A    between atoms: _358  and  _361
REMARK  158  A    between atoms: _361  and  _362
REMARK  159  A    between atoms: _362  and  _363
REMARK  160  A    between atoms: _363  and  _364
REMARK  161  A    between atoms: _373  and  _375
REMARK  162  A    between atoms: _375  and  _376
REMARK  163  A    between atoms: _378  and  _380
REMARK  164  A    between atoms: _380  and  _381
REMARK  165  A    between atoms: _380  and  _383
REMARK  166  A    between atoms: _386  and  _388
REMARK  167  A    between atoms: _388  and  _389
REMARK  168  A    between atoms: _388  and  _391
REMARK  169  A    between atoms: _391  and  _392
REMARK  170  A    between atoms: _395  and  _397
REMARK  171  A    between atoms: _397  and  _398
REMARK  172  A    between atoms: _397  and  _400
REMARK  173  A    between atoms: _400  and  _401
REMARK  174  A    between atoms: _401  and  _402
REMARK  175  A    between atoms: _402  and  _403
REMARK  176  A    between atoms: _403  and  _404
REMARK  177  A    between atoms: _408  and  _410
REMARK  178  A    between atoms: _410  and  _411
REMARK  179  A    between atoms: _410  and  _413
REMARK  180  A    between atoms: _413  and  _414
REMARK  181  A    between atoms: _414  and  _415
REMARK  182  A    between atoms: _415  and  _416
REMARK  183  A    between atoms: _416  and  _417
REMARK  184  A    between atoms: _421  and  _423
REMARK  185  A    between atoms: _423  and  _424
REMARK  186  A    between atoms: _423  and  _426
REMARK  187  A    between atoms: _426  and  _427
REMARK  188  A    between atoms: _432  and  _434
REMARK  189  A    between atoms: _434  and  _435
REMARK  190  A    between atoms: _434  and  _437
REMARK  191  A    between atoms: _437  and  _438
REMARK  192  A    between atoms: _443  and  _445
REMARK  193  A    between atoms: _445  and  _446
REMARK  194  A    between atoms: _449  and  _451
REMARK  195  A    between atoms: _451  and  _452
REMARK  196  A    between atoms: _451  and  _454
REMARK  197  A    between atoms: _454  and  _455
REMARK  198  A    between atoms: _460  and  _462
REMARK  199  A    between atoms: _462  and  _463
REMARK  200  A    between atoms: _466  and  _468
REMARK  201  A    between atoms: _468  and  _469
REMARK  202  A    between atoms: _472  and  _474
REMARK  203  A    between atoms: _474  and  _475
REMARK  204  A    between atoms: _474  and  _477
REMARK  205  A    between atoms: _477  and  _478
REMARK  206  A    between atoms: _483  and  _485
REMARK  207  A    between atoms: _485  and  _486
REMARK  208  A    between atoms: _485  and  _488
REMARK  209  A    between atoms: _488  and  _489
REMARK  210  A    between atoms: _492  and  _494
REMARK  211  A    between atoms: _494  and  _495
REMARK  212  A    between atoms: _497  and  _499
REMARK  213  A    between atoms: _499  and  _500
REMARK  214  A    between atoms: _499  and  _502
REMARK  215  A    between atoms: _502  and  _503
REMARK  216  A    between atoms: _503  and  _504
REMARK  217  A    between atoms: _507  and  _509
REMARK  218  A    between atoms: _509  and  _510
REMARK  219  A    between atoms: _509  and  _512
REMARK  220  A    between atoms: _512  and  _513
REMARK  221  A    between atoms: _516  and  _518
REMARK  222  A    between atoms: _518  and  _519
REMARK  223  A    between atoms: _518  and  _521
REMARK  224  A    between atoms: _521  and  _522
REMARK  225  A    between atoms: _524  and  _526
REMARK  226  A    between atoms: _526  and  _527
REMARK  227  A    between atoms: _526  and  _529
REMARK  228  A    between atoms: _529  and  _530
REMARK  229  A    between atoms: _533  and  _535
REMARK  230  A    between atoms: _535  and  _536
REMARK  231  A    between atoms: _535  and  _538
REMARK  232  A    between atoms: _538  and  _539
REMARK  233  A    between atoms: _539  and  _540
REMARK  234  A    between atoms: _542  and  _544
REMARK  235  A    between atoms: _544  and  _545
REMARK  236  A    between atoms: _548  and  _550
REMARK  237  A    between atoms: _550  and  _551
REMARK  238  A    between atoms: _554  and  _556
REMARK  239  A    between atoms: _556  and  _557
REMARK  240  A    between atoms: _556  and  _559
REMARK  241  A    between atoms: _559  and  _560
REMARK  242  A    between atoms: _563  and  _565
REMARK  243  A    between atoms: _565  and  _566
REMARK  244  A    between atoms: _569  and  _571
REMARK  245  A    between atoms: _571  and  _572
REMARK                            x       y       z     vdW  Elec       q    Type
REMARK                         _______ _______ _______ _____ _____    ______ ____
ROOT
ATOM      1  O   HOH     1      88.449   8.255  -7.389  0.00  0.00    +0.000 OA
ENDROOT
TORSDOF 0
REMARK  Name = ../refined-set-2016/3ccz/3ccz_pocket.pdb
REMARK  245 active torsions:
REMARK  status: ('A' for Active; 'I' for Inactive)
REMARK    1  A    between atoms: _1  and  _3
REMARK    2  A    between atoms: _3  and  _4
REMARK    3  A    between atoms: _3  and  _6
REMARK    4  A    between atoms: _6  and  _7
REMARK    5  A    between atoms: _7  and  _8
REMARK    6  A    between atoms: _11  and  _13
REMARK    7  A    between atoms: _13  and  _14
REMARK    8  A    between atoms: _13  and  _16
REMARK    9  A    between atoms: _16  and  _17
REMARK   10  A    between atoms: _20  and  _22
REMARK   11  A    between atoms: _22  and  _23
REMARK   12  A    between atoms: _22  and  _25
REMARK   13  A    between atoms: _25  and  _26
REMARK   14  A    between atoms: _26  and  _27
REMARK   15  A    between atoms: _27  and  _28
REMARK   16  A    between atoms: _37  and  _39
REMARK   17  A    between atoms: _39  and  _40
REMARK   18  A    between atoms: _43  and  _44
REMARK   19  A    between atoms: _49  and  _51
REMARK   20  A    between atoms: _51  and  _52
REMARK   21  A    between atoms: _51  and  _54
REMARK   22  A    between atoms: _54  and  _55
REMARK   23  A    between atoms: _55  and  _56
REMARK   24  A    between atoms: _58  and  _60
REMARK   25  A    between atoms: _60  and  _61
REMARK   26  A    between atoms: _60  and  _63
REMARK   27  A    between atoms: _63  and  _64
REMARK   28  A    between atoms: _64  and  _65
REMARK   29  A    between atoms: _67  and  _69
REMARK   30  A    between atoms: _69  and  _70
REMARK   31  A    between atoms: _69  and  _72
REMARK   32  A    between atoms: _72  and  _73
REMARK   33  A    between atoms: _78  and  _80
REMARK   34  A    between atoms: _80  and  _81
REMARK   35  A    between atoms: _80  and  _83
REMARK   36  A    between atoms: _83  and  _84
REMARK   37  A    between atoms: _84  and  _85
REMARK   38  A    between atoms: _87  and  _89
REMARK   39  A    between atoms: _89  and  _90
REMARK   40  A    between atoms: _89  and  _92
REMARK   41  A    between atoms: _92  and  _93
REMARK   42  A    between atoms: _96  and  _98
REMARK   43  A    between atoms: _98  and  _99
REMARK   44  A    between atoms: _98  and  _101
REMARK   45  A    between atoms: _101  and  _102
REMARK   46  A    between atoms: _104  and  _106
REMARK   47  A    between atoms: _106  and  _107
REMARK   48  A    between atoms: _106  and  _109
REMARK   49  A    between atoms: _109  and  _110
REMARK   50  A    between atoms: _110  and  _111
REMARK   51  A    between atoms: _111  and  _112
REMARK   52  A    between atoms: _112  and  _113
REMARK   53  A    between atoms: _117  and  _119
REMARK   54  A    between atoms: _119  and  _120
REMARK   55  A    between atoms: _119  and  _122
REMARK   56  A    between atoms: _122  and  _123
REMARK   57  A    between atoms: _126  and  _128
REMARK   58  A    between atoms: _128  and  _129
REMARK   59  A    between atoms: _128  and  _131
REMARK   60  A    between atoms: _131  and  _132
REMARK   61  A    between atoms: _132  and  _133
REMARK   62  A    between atoms: _136  and  _138
REMARK   63  A    between atoms: _138  and  _139
REMARK   64  A    between atoms: _142  and  _144
REMARK   65  A    between atoms: _144  and  _145
REMARK   66  A    between atoms: _144  and  _147
REMARK   67  A    between atoms: _150  and  _152
REMARK   68  A    between atoms: _152  and  _153
REMARK   69  A    between atoms: _152  and  _155
REMARK   70  A    between atoms: _155  and  _156
REMARK   71  A    between atoms: _158  and  _160
REMARK   72  A    between atoms: _160  and  _161
REMARK   73  A    between atoms: _163  and  _165
REMARK   74  A    between atoms: _165  and  _166
REMARK   75  A    between atoms: _165  and  _168
REMARK   76  A    between atoms: _168  and  _169
REMARK   77  A    between atoms: _174  and  _176
REMARK   78  A    between atoms: _176  and  _177
REMARK   79  A    between atoms: _176  and  _179
REMARK   80  A    between atoms: _179  and  _180
REMARK   81  A    between atoms: _185  and  _186
REMARK   82  A    between atoms: _188  and  _190
REMARK   83  A    between atoms: _190  and  _191
REMARK   84  A    between atoms: _190  and  _193
REMARK   85  A    between atoms: _195  and  _197
REMARK   86  A    between atoms: _197  and  _198
REMARK   87  A    between atoms: _197  and  _200
REMARK   88  A    between atoms: _200  and  _201
REMARK   89  A    between atoms: _204  and  _206
REMARK   90  A    between atoms: _206  and  _207
REMARK   91  A    between atoms: _206  and  _209
REMARK   92  A    between atoms: _209  and  _210
REMARK   93  A    between atoms: _213  and  _215
REMARK   94  A    between atoms: _215  and  _216
REMARK   95  A    between atoms: _215  and  _218
REMARK   96  A    between atoms: _218  and  _219
REMARK   97  A    between atoms: _219  and  _220
REMARK   98  A    between atoms: _220  and  _221
REMARK   99  A    between atoms: _221  and  _222
REMARK  100  A    between atoms: _226  and  _228
REMARK  101  A    between atoms: _228  and  _229
REMARK  102  A    between atoms: _228  and  _231
REMARK  103  A    between atoms: _231  and  _232
REMARK  104  A    between atoms: _232  and  _233
REMARK  105  A    between atoms: _233  and  _234
REMARK  106  A    between atoms: _234  and  _235
REMARK  107  A    between atoms: _239  and  _241
REMARK  108  A    between atoms: _241  and  _242
REMARK  109  A    between atoms: _241  and  _244
REMARK  110  A    between atoms: _244  and  _245
REMARK  111  A    between atoms: _245  and  _246
REMARK  112  A    between atoms: _246  and  _247
REMARK  113  A    between atoms: _256  and  _258
REMARK  114  A    between atoms: _258  and  _259
REMARK  115  A    between atoms: _258  and  _261
REMARK  116  A    between atoms: _261  and  _262
REMARK  117  A    between atoms: _265  and  _267
REMARK  118  A    between atoms: _267  and  _268
REMARK  119  A    between atoms: _271  and  _273
REMARK  120  A    between atoms: _273  and  _274
REMARK  121  A    between atoms: _273  and  _276
REMARK  122  A    between atoms: _276  and  _277
REMARK  123  A    between atoms: _277  and  _278
REMARK  124  A    between atoms: _283  and  _285
REMARK  125  A    between atoms: _285  and  _286
REMARK  126  A    between atoms: _285  and  _288
REMARK  127  A    between atoms: _288  and  _289
REMARK  128  A    between atoms: _289  and  _290
REMARK  129  A    between atoms: _293  and  _295
REMARK  130  A    between atoms: _295  and  _296
REMARK  131  A    between atoms: _298  and  _300
REMARK  132  A    between atoms: _300  and  _301
REMARK  133  A    between atoms: _300  and  _303
REMARK  134  A    between atoms: _305  and  _307
REMARK  135  A    between atoms: _307  and  _308
REMARK  136  A    between atoms: _307  and  _310
REMARK  137  A    between atoms: _310  and  _311
REMARK  138  A    between atoms: _314  and  _316
REMARK  139  A    between atoms: _316  and  _317
REMARK  140  A    between atoms: _316  and  _319
REMARK  141  A    between atoms: _322  and  _324
REMARK  142  A    between atoms: _324  and  _325
REMARK  143  A    between atoms: _328  and  _330
REMARK  144  A    between atoms: _330  and  _331
REMARK  145  A    between atoms: _330  and  _333
REMARK  146  A    between atoms: _333  and  _334
REMARK  147  A    between atoms: _336  and  _338
REMARK  148  A    between atoms: _338  and  _339
REMARK  149  A    between atoms: _338  and  _341
REMARK  150  A    between atoms: _341  and  _342
REMARK  151  A    between atoms: _345  and  _347
REMARK  152  A    between atoms: _347  and  _348
REMARK  153  A    between atoms: _347  and  _350
REMARK  154  A    between atoms: _350  and  _351
REMARK  155  A    between atoms: _356  and  _358
REMARK  156  A    between atoms: _358  and  _359
REMARK  157  A    between atoms: _358  and  _361
REMARK  158  A    between atoms: _361  and  _362
REMARK  159  A    between atoms: _362  and  _363
REMARK  160  A    between atoms: _363  and  _364
REMARK  161  A    between atoms: _373  and  _375
REMARK  162  A    between atoms: _375  and  _376
REMARK  163  A    between atoms: _378  and  _380
REMARK  164  A    between atoms: _380  and  _381
REMARK  165  A    between atoms: _380  and  _383
REMARK  166  A    between atoms: _386  and  _388
REMARK  167  A    between atoms: _388  and  _389
REMARK  168  A    between atoms: _388  and  _391
REMARK  169  A    between atoms: _391  and  _392
REMARK  170  A    between atoms: _395  and  _397
REMARK  171  A    between atoms: _397  and  _398
REMARK  172  A    between atoms: _397  and  _400
REMARK  173  A    between atoms: _400  and  _401
REMARK  174  A    between atoms: _401  and  _402
REMARK  175  A    between atoms: _402  and  _403
REMARK  176  A    between atoms: _403  and  _404
REMARK  177  A    between atoms: _408  and  _410
REMARK  178  A    between atoms: _410  and  _411
REMARK  179  A    between atoms: _410  and  _413
REMARK  180  A    between atoms: _413  and  _414
REMARK  181  A    between atoms: _414  and  _415
REMARK  182  A    between atoms: _415  and  _416
REMARK  183  A    between atoms: _416  and  _417
REMARK  184  A    between atoms: _421  and  _423
REMARK  185  A    between atoms: _423  and  _424
REMARK  186  A    between atoms: _423  and  _426
REMARK  187  A    between atoms: _426  and  _427
REMARK  188  A    between atoms: _432  and  _434
REMARK  189  A    between atoms: _434  and  _435
REMARK  190  A    between atoms: _434  and  _437
REMARK  191  A    between atoms: _437  and  _438
REMARK  192  A    between atoms: _443  and  _445
REMARK  193  A    between atoms: _445  and  _446
REMARK  194  A    between atoms: _449  and  _451
REMARK  195  A    between atoms: _451  and  _452
REMARK  196  A    between atoms: _451  and  _454
REMARK  197  A    between atoms: _454  and  _455
REMARK  198  A    between atoms: _460  and  _462
REMARK  199  A    between atoms: _462  and  _463
REMARK  200  A    between atoms: _466  and  _468
REMARK  201  A    between atoms: _468  and  _469
REMARK  202  A    between atoms: _472  and  _474
REMARK  203  A    between atoms: _474  and  _475
REMARK  204  A    between atoms: _474  and  _477
REMARK  205  A    between atoms: _477  and  _478
REMARK  206  A    between atoms: _483  and  _485
REMARK  207  A    between atoms: _485  and  _486
REMARK  208  A    between atoms: _485  and  _488
REMARK  209  A    between atoms: _488  and  _489
REMARK  210  A    between atoms: _492  and  _494
REMARK  211  A    between atoms: _494  and  _495
REMARK  212  A    between atoms: _497  and  _499
REMARK  213  A    between atoms: _499  and  _500
REMARK  214  A    between atoms: _499  and  _502
REMARK  215  A    between atoms: _502  and  _503
REMARK  216  A    between atoms: _503  and  _504
REMARK  217  A    between atoms: _507  and  _509
REMARK  218  A    between atoms: _509  and  _510
REMARK  219  A    between atoms: _509  and  _512
REMARK  220  A    between atoms: _512  and  _513
REMARK  221  A    between atoms: _516  and  _518
REMARK  222  A    between atoms: _518  and  _519
REMARK  223  A    between atoms: _518  and  _521
REMARK  224  A    between atoms: _521  and  _522
REMARK  225  A    between atoms: _524  and  _526
REMARK  226  A    between atoms: _526  and  _527
REMARK  227  A    between atoms: _526  and  _529
REMARK  228  A    between atoms: _529  and  _530
REMARK  229  A    between atoms: _533  and  _535
REMARK  230  A    between atoms: _535  and  _536
REMARK  231  A    between atoms: _535  and  _538
REMARK  232  A    between atoms: _538  and  _539
REMARK  233  A    between atoms: _539  and  _540
REMARK  234  A    between atoms: _542  and  _544
REMARK  235  A    between atoms: _544  and  _545
REMARK  236  A    between atoms: _548  and  _550
REMARK  237  A    between atoms: _550  and  _551
REMARK  238  A    between atoms: _554  and  _556
REMARK  239  A    between atoms: _556  and  _557
REMARK  240  A    between atoms: _556  and  _559
REMARK  241  A    between atoms: _559  and  _560
REMARK  242  A    between atoms: _563  and  _565
REMARK  243  A    between atoms: _565  and  _566
REMARK  244  A    between atoms: _569  and  _571
REMARK  245  A    between atoms: _571  and  _572
REMARK                            x       y       z     vdW  Elec       q    Type
REMARK                         _______ _______ _______ _____ _____    ______ ____
ROOT
ATOM      1  O   HOH     1      87.950   4.684   0.032  0.00  0.00    +0.000 OA
ENDROOT
TORSDOF 0
REMARK  Name = ../refined-set-2016/3ccz/3ccz_pocket.pdb
REMARK  245 active torsions:
REMARK  status: ('A' for Active; 'I' for Inactive)
REMARK    1  A    between atoms: _1  and  _3
REMARK    2  A    between atoms: _3  and  _4
REMARK    3  A    between atoms: _3  and  _6
REMARK    4  A    between atoms: _6  and  _7
REMARK    5  A    between atoms: _7  and  _8
REMARK    6  A    between atoms: _11  and  _13
REMARK    7  A    between atoms: _13  and  _14
REMARK    8  A    between atoms: _13  and  _16
REMARK    9  A    between atoms: _16  and  _17
REMARK   10  A    between atoms: _20  and  _22
REMARK   11  A    between atoms: _22  and  _23
REMARK   12  A    between atoms: _22  and  _25
REMARK   13  A    between atoms: _25  and  _26
REMARK   14  A    between atoms: _26  and  _27
REMARK   15  A    between atoms: _27  and  _28
REMARK   16  A    between atoms: _37  and  _39
REMARK   17  A    between atoms: _39  and  _40
REMARK   18  A    between atoms: _43  and  _44
REMARK   19  A    between atoms: _49  and  _51
REMARK   20  A    between atoms: _51  and  _52
REMARK   21  A    between atoms: _51  and  _54
REMARK   22  A    between atoms: _54  and  _55
REMARK   23  A    between atoms: _55  and  _56
REMARK   24  A    between atoms: _58  and  _60
REMARK   25  A    between atoms: _60  and  _61
REMARK   26  A    between atoms: _60  and  _63
REMARK   27  A    between atoms: _63  and  _64
REMARK   28  A    between atoms: _64  and  _65
REMARK   29  A    between atoms: _67  and  _69
REMARK   30  A    between atoms: _69  and  _70
REMARK   31  A    between atoms: _69  and  _72
REMARK   32  A    between atoms: _72  and  _73
REMARK   33  A    between atoms: _78  and  _80
REMARK   34  A    between atoms: _80  and  _81
REMARK   35  A    between atoms: _80  and  _83
REMARK   36  A    between atoms: _83  and  _84
REMARK   37  A    between atoms: _84  and  _85
REMARK   38  A    between atoms: _87  and  _89
REMARK   39  A    between atoms: _89  and  _90
REMARK   40  A    between atoms: _89  and  _92
REMARK   41  A    between atoms: _92  and  _93
REMARK   42  A    between atoms: _96  and  _98
REMARK   43  A    between atoms: _98  and  _99
REMARK   44  A    between atoms: _98  and  _101
REMARK   45  A    between atoms: _101  and  _102
REMARK   46  A    between atoms: _104  and  _106
REMARK   47  A    between atoms: _106  and  _107
REMARK   48  A    between atoms: _106  and  _109
REMARK   49  A    between atoms: _109  and  _110
REMARK   50  A    between atoms: _110  and  _111
REMARK   51  A    between atoms: _111  and  _112
REMARK   52  A    between atoms: _112  and  _113
REMARK   53  A    between atoms: _117  and  _119
REMARK   54  A    between atoms: _119  and  _120
REMARK   55  A    between atoms: _119  and  _122
REMARK   56  A    between atoms: _122  and  _123
REMARK   57  A    between atoms: _126  and  _128
REMARK   58  A    between atoms: _128  and  _129
REMARK   59  A    between atoms: _128  and  _131
REMARK   60  A    between atoms: _131  and  _132
REMARK   61  A    between atoms: _132  and  _133
REMARK   62  A    between atoms: _136  and  _138
REMARK   63  A    between atoms: _138  and  _139
REMARK   64  A    between atoms: _142  and  _144
REMARK   65  A    between atoms: _144  and  _145
REMARK   66  A    between atoms: _144  and  _147
REMARK   67  A    between atoms: _150  and  _152
REMARK   68  A    between atoms: _152  and  _153
REMARK   69  A    between atoms: _152  and  _155
REMARK   70  A    between atoms: _155  and  _156
REMARK   71  A    between atoms: _158  and  _160
REMARK   72  A    between atoms: _160  and  _161
REMARK   73  A    between atoms: _163  and  _165
REMARK   74  A    between atoms: _165  and  _166
REMARK   75  A    between atoms: _165  and  _168
REMARK   76  A    between atoms: _168  and  _169
REMARK   77  A    between atoms: _174  and  _176
REMARK   78  A    between atoms: _176  and  _177
REMARK   79  A    between atoms: _176  and  _179
REMARK   80  A    between atoms: _179  and  _180
REMARK   81  A    between atoms: _185  and  _186
REMARK   82  A    between atoms: _188  and  _190
REMARK   83  A    between atoms: _190  and  _191
REMARK   84  A    between atoms: _190  and  _193
REMARK   85  A    between atoms: _195  and  _197
REMARK   86  A    between atoms: _197  and  _198
REMARK   87  A    between atoms: _197  and  _200
REMARK   88  A    between atoms: _200  and  _201
REMARK   89  A    between atoms: _204  and  _206
REMARK   90  A    between atoms: _206  and  _207
REMARK   91  A    between atoms: _206  and  _209
REMARK   92  A    between atoms: _209  and  _210
REMARK   93  A    between atoms: _213  and  _215
REMARK   94  A    between atoms: _215  and  _216
REMARK   95  A    between atoms: _215  and  _218
REMARK   96  A    between atoms: _218  and  _219
REMARK   97  A    between atoms: _219  and  _220
REMARK   98  A    between atoms: _220  and  _221
REMARK   99  A    between atoms: _221  and  _222
REMARK  100  A    between atoms: _226  and  _228
REMARK  101  A    between atoms: _228  and  _229
REMARK  102  A    between atoms: _228  and  _231
REMARK  103  A    between atoms: _231  and  _232
REMARK  104  A    between atoms: _232  and  _233
REMARK  105  A    between atoms: _233  and  _234
REMARK  106  A    between atoms: _234  and  _235
REMARK  107  A    between atoms: _239  and  _241
REMARK  108  A    between atoms: _241  and  _242
REMARK  109  A    between atoms: _241  and  _244
REMARK  110  A    between atoms: _244  and  _245
REMARK  111  A    between atoms: _245  and  _246
REMARK  112  A    between atoms: _246  and  _247
REMARK  113  A    between atoms: _256  and  _258
REMARK  114  A    between atoms: _258  and  _259
REMARK  115  A    between atoms: _258  and  _261
REMARK  116  A    between atoms: _261  and  _262
REMARK  117  A    between atoms: _265  and  _267
REMARK  118  A    between atoms: _267  and  _268
REMARK  119  A    between atoms: _271  and  _273
REMARK  120  A    between atoms: _273  and  _274
REMARK  121  A    between atoms: _273  and  _276
REMARK  122  A    between atoms: _276  and  _277
REMARK  123  A    between atoms: _277  and  _278
REMARK  124  A    between atoms: _283  and  _285
REMARK  125  A    between atoms: _285  and  _286
REMARK  126  A    between atoms: _285  and  _288
REMARK  127  A    between atoms: _288  and  _289
REMARK  128  A    between atoms: _289  and  _290
REMARK  129  A    between atoms: _293  and  _295
REMARK  130  A    between atoms: _295  and  _296
REMARK  131  A    between atoms: _298  and  _300
REMARK  132  A    between atoms: _300  and  _301
REMARK  133  A    between atoms: _300  and  _303
REMARK  134  A    between atoms: _305  and  _307
REMARK  135  A    between atoms: _307  and  _308
REMARK  136  A    between atoms: _307  and  _310
REMARK  137  A    between atoms: _310  and  _311
REMARK  138  A    between atoms: _314  and  _316
REMARK  139  A    between atoms: _316  and  _317
REMARK  140  A    between atoms: _316  and  _319
REMARK  141  A    between atoms: _322  and  _324
REMARK  142  A    between atoms: _324  and  _325
REMARK  143  A    between atoms: _328  and  _330
REMARK  144  A    between atoms: _330  and  _331
REMARK  145  A    between atoms: _330  and  _333
REMARK  146  A    between atoms: _333  and  _334
REMARK  147  A    between atoms: _336  and  _338
REMARK  148  A    between atoms: _338  and  _339
REMARK  149  A    between atoms: _338  and  _341
REMARK  150  A    between atoms: _341  and  _342
REMARK  151  A    between atoms: _345  and  _347
REMARK  152  A    between atoms: _347  and  _348
REMARK  153  A    between atoms: _347  and  _350
REMARK  154  A    between atoms: _350  and  _351
REMARK  155  A    between atoms: _356  and  _358
REMARK  156  A    between atoms: _358  and  _359
REMARK  157  A    between atoms: _358  and  _361
REMARK  158  A    between atoms: _361  and  _362
REMARK  159  A    between atoms: _362  and  _363
REMARK  160  A    between atoms: _363  and  _364
REMARK  161  A    between atoms: _373  and  _375
REMARK  162  A    between atoms: _375  and  _376
REMARK  163  A    between atoms: _378  and  _380
REMARK  164  A    between atoms: _380  and  _381
REMARK  165  A    between atoms: _380  and  _383
REMARK  166  A    between atoms: _386  and  _388
REMARK  167  A    between atoms: _388  and  _389
REMARK  168  A    between atoms: _388  and  _391
REMARK  169  A    between atoms: _391  and  _392
REMARK  170  A    between atoms: _395  and  _397
REMARK  171  A    between atoms: _397  and  _398
REMARK  172  A    between atoms: _397  and  _400
REMARK  173  A    between atoms: _400  and  _401
REMARK  174  A    between atoms: _401  and  _402
REMARK  175  A    between atoms: _402  and  _403
REMARK  176  A    between atoms: _403  and  _404
REMARK  177  A    between atoms: _408  and  _410
REMARK  178  A    between atoms: _410  and  _411
REMARK  179  A    between atoms: _410  and  _413
REMARK  180  A    between atoms: _413  and  _414
REMARK  181  A    between atoms: _414  and  _415
REMARK  182  A    between atoms: _415  and  _416
REMARK  183  A    between atoms: _416  and  _417
REMARK  184  A    between atoms: _421  and  _423
REMARK  185  A    between atoms: _423  and  _424
REMARK  186  A    between atoms: _423  and  _426
REMARK  187  A    between atoms: _426  and  _427
REMARK  188  A    between atoms: _432  and  _434
REMARK  189  A    between atoms: _434  and  _435
REMARK  190  A    between atoms: _434  and  _437
REMARK  191  A    between atoms: _437  and  _438
REMARK  192  A    between atoms: _443  and  _445
REMARK  193  A    between atoms: _445  and  _446
REMARK  194  A    between atoms: _449  and  _451
REMARK  195  A    between atoms: _451  and  _452
REMARK  196  A    between atoms: _451  and  _454
REMARK  197  A    between atoms: _454  and  _455
REMARK  198  A    between atoms: _460  and  _462
REMARK  199  A    between atoms: _462  and  _463
REMARK  200  A    between atoms: _466  and  _468
REMARK  201  A    between atoms: _468  and  _469
REMARK  202  A    between atoms: _472  and  _474
REMARK  203  A    between atoms: _474  and  _475
REMARK  204  A    between atoms: _474  and  _477
REMARK  205  A    between atoms: _477  and  _478
REMARK  206  A    between atoms: _483  and  _485
REMARK  207  A    between atoms: _485  and  _486
REMARK  208  A    between atoms: _485  and  _488
REMARK  209  A    between atoms: _488  and  _489
REMARK  210  A    between atoms: _492  and  _494
REMARK  211  A    between atoms: _494  and  _495
REMARK  212  A    between atoms: _497  and  _499
REMARK  213  A    between atoms: _499  and  _500
REMARK  214  A    between atoms: _499  and  _502
REMARK  215  A    between atoms: _502  and  _503
REMARK  216  A    between atoms: _503  and  _504
REMARK  217  A    between atoms: _507  and  _509
REMARK  218  A    between atoms: _509  and  _510
REMARK  219  A    between atoms: _509  and  _512
REMARK  220  A    between atoms: _512  and  _513
REMARK  221  A    between atoms: _516  and  _518
REMARK  222  A    between atoms: _518  and  _519
REMARK  223  A    between atoms: _518  and  _521
REMARK  224  A    between atoms: _521  and  _522
REMARK  225  A    between atoms: _524  and  _526
REMARK  226  A    between atoms: _526  and  _527
REMARK  227  A    between atoms: _526  and  _529
REMARK  228  A    between atoms: _529  and  _530
REMARK  229  A    between atoms: _533  and  _535
REMARK  230  A    between atoms: _535  and  _536
REMARK  231  A    between atoms: _535  and  _538
REMARK  232  A    between atoms: _538  and  _539
REMARK  233  A    between atoms: _539  and  _540
REMARK  234  A    between atoms: _542  and  _544
REMARK  235  A    between atoms: _544  and  _545
REMARK  236  A    between atoms: _548  and  _550
REMARK  237  A    between atoms: _550  and  _551
REMARK  238  A    between atoms: _554  and  _556
REMARK  239  A    between atoms: _556  and  _557
REMARK  240  A    between atoms: _556  and  _559
REMARK  241  A    between atoms: _559  and  _560
REMARK  242  A    between atoms: _563  and  _565
REMARK  243  A    between atoms: _565  and  _566
REMARK  244  A    between atoms: _569  and  _571
REMARK  245  A    between atoms: _571  and  _572
REMARK                            x       y       z     vdW  Elec       q    Type
REMARK                         _______ _______ _______ _____ _____    ______ ____
ROOT
ATOM      1  O   HOH     1      75.150  17.773  -7.191  0.00  0.00    +0.000 OA
ENDROOT
TORSDOF 0
REMARK  Name = ../refined-set-2016/3ccz/3ccz_pocket.pdb
REMARK  245 active torsions:
REMARK  status: ('A' for Active; 'I' for Inactive)
REMARK    1  A    between atoms: _1  and  _3
REMARK    2  A    between atoms: _3  and  _4
REMARK    3  A    between atoms: _3  and  _6
REMARK    4  A    between atoms: _6  and  _7
REMARK    5  A    between atoms: _7  and  _8
REMARK    6  A    between atoms: _11  and  _13
REMARK    7  A    between atoms: _13  and  _14
REMARK    8  A    between atoms: _13  and  _16
REMARK    9  A    between atoms: _16  and  _17
REMARK   10  A    between atoms: _20  and  _22
REMARK   11  A    between atoms: _22  and  _23
REMARK   12  A    between atoms: _22  and  _25
REMARK   13  A    between atoms: _25  and  _26
REMARK   14  A    between atoms: _26  and  _27
REMARK   15  A    between atoms: _27  and  _28
REMARK   16  A    between atoms: _37  and  _39
REMARK   17  A    between atoms: _39  and  _40
REMARK   18  A    between atoms: _43  and  _44
REMARK   19  A    between atoms: _49  and  _51
REMARK   20  A    between atoms: _51  and  _52
REMARK   21  A    between atoms: _51  and  _54
REMARK   22  A    between atoms: _54  and  _55
REMARK   23  A    between atoms: _55  and  _56
REMARK   24  A    between atoms: _58  and  _60
REMARK   25  A    between atoms: _60  and  _61
REMARK   26  A    between atoms: _60  and  _63
REMARK   27  A    between atoms: _63  and  _64
REMARK   28  A    between atoms: _64  and  _65
REMARK   29  A    between atoms: _67  and  _69
REMARK   30  A    between atoms: _69  and  _70
REMARK   31  A    between atoms: _69  and  _72
REMARK   32  A    between atoms: _72  and  _73
REMARK   33  A    between atoms: _78  and  _80
REMARK   34  A    between atoms: _80  and  _81
REMARK   35  A    between atoms: _80  and  _83
REMARK   36  A    between atoms: _83  and  _84
REMARK   37  A    between atoms: _84  and  _85
REMARK   38  A    between atoms: _87  and  _89
REMARK   39  A    between atoms: _89  and  _90
REMARK   40  A    between atoms: _89  and  _92
REMARK   41  A    between atoms: _92  and  _93
REMARK   42  A    between atoms: _96  and  _98
REMARK   43  A    between atoms: _98  and  _99
REMARK   44  A    between atoms: _98  and  _101
REMARK   45  A    between atoms: _101  and  _102
REMARK   46  A    between atoms: _104  and  _106
REMARK   47  A    between atoms: _106  and  _107
REMARK   48  A    between atoms: _106  and  _109
REMARK   49  A    between atoms: _109  and  _110
REMARK   50  A    between atoms: _110  and  _111
REMARK   51  A    between atoms: _111  and  _112
REMARK   52  A    between atoms: _112  and  _113
REMARK   53  A    between atoms: _117  and  _119
REMARK   54  A    between atoms: _119  and  _120
REMARK   55  A    between atoms: _119  and  _122
REMARK   56  A    between atoms: _122  and  _123
REMARK   57  A    between atoms: _126  and  _128
REMARK   58  A    between atoms: _128  and  _129
REMARK   59  A    between atoms: _128  and  _131
REMARK   60  A    between atoms: _131  and  _132
REMARK   61  A    between atoms: _132  and  _133
REMARK   62  A    between atoms: _136  and  _138
REMARK   63  A    between atoms: _138  and  _139
REMARK   64  A    between atoms: _142  and  _144
REMARK   65  A    between atoms: _144  and  _145
REMARK   66  A    between atoms: _144  and  _147
REMARK   67  A    between atoms: _150  and  _152
REMARK   68  A    between atoms: _152  and  _153
REMARK   69  A    between atoms: _152  and  _155
REMARK   70  A    between atoms: _155  and  _156
REMARK   71  A    between atoms: _158  and  _160
REMARK   72  A    between atoms: _160  and  _161
REMARK   73  A    between atoms: _163  and  _165
REMARK   74  A    between atoms: _165  and  _166
REMARK   75  A    between atoms: _165  and  _168
REMARK   76  A    between atoms: _168  and  _169
REMARK   77  A    between atoms: _174  and  _176
REMARK   78  A    between atoms: _176  and  _177
REMARK   79  A    between atoms: _176  and  _179
REMARK   80  A    between atoms: _179  and  _180
REMARK   81  A    between atoms: _185  and  _186
REMARK   82  A    between atoms: _188  and  _190
REMARK   83  A    between atoms: _190  and  _191
REMARK   84  A    between atoms: _190  and  _193
REMARK   85  A    between atoms: _195  and  _197
REMARK   86  A    between atoms: _197  and  _198
REMARK   87  A    between atoms: _197  and  _200
REMARK   88  A    between atoms: _200  and  _201
REMARK   89  A    between atoms: _204  and  _206
REMARK   90  A    between atoms: _206  and  _207
REMARK   91  A    between atoms: _206  and  _209
REMARK   92  A    between atoms: _209  and  _210
REMARK   93  A    between atoms: _213  and  _215
REMARK   94  A    between atoms: _215  and  _216
REMARK   95  A    between atoms: _215  and  _218
REMARK   96  A    between atoms: _218  and  _219
REMARK   97  A    between atoms: _219  and  _220
REMARK   98  A    between atoms: _220  and  _221
REMARK   99  A    between atoms: _221  and  _222
REMARK  100  A    between atoms: _226  and  _228
REMARK  101  A    between atoms: _228  and  _229
REMARK  102  A    between atoms: _228  and  _231
REMARK  103  A    between atoms: _231  and  _232
REMARK  104  A    between atoms: _232  and  _233
REMARK  105  A    between atoms: _233  and  _234
REMARK  106  A    between atoms: _234  and  _235
REMARK  107  A    between atoms: _239  and  _241
REMARK  108  A    between atoms: _241  and  _242
REMARK  109  A    between atoms: _241  and  _244
REMARK  110  A    between atoms: _244  and  _245
REMARK  111  A    between atoms: _245  and  _246
REMARK  112  A    between atoms: _246  and  _247
REMARK  113  A    between atoms: _256  and  _258
REMARK  114  A    between atoms: _258  and  _259
REMARK  115  A    between atoms: _258  and  _261
REMARK  116  A    between atoms: _261  and  _262
REMARK  117  A    between atoms: _265  and  _267
REMARK  118  A    between atoms: _267  and  _268
REMARK  119  A    between atoms: _271  and  _273
REMARK  120  A    between atoms: _273  and  _274
REMARK  121  A    between atoms: _273  and  _276
REMARK  122  A    between atoms: _276  and  _277
REMARK  123  A    between atoms: _277  and  _278
REMARK  124  A    between atoms: _283  and  _285
REMARK  125  A    between atoms: _285  and  _286
REMARK  126  A    between atoms: _285  and  _288
REMARK  127  A    between atoms: _288  and  _289
REMARK  128  A    between atoms: _289  and  _290
REMARK  129  A    between atoms: _293  and  _295
REMARK  130  A    between atoms: _295  and  _296
REMARK  131  A    between atoms: _298  and  _300
REMARK  132  A    between atoms: _300  and  _301
REMARK  133  A    between atoms: _300  and  _303
REMARK  134  A    between atoms: _305  and  _307
REMARK  135  A    between atoms: _307  and  _308
REMARK  136  A    between atoms: _307  and  _310
REMARK  137  A    between atoms: _310  and  _311
REMARK  138  A    between atoms: _314  and  _316
REMARK  139  A    between atoms: _316  and  _317
REMARK  140  A    between atoms: _316  and  _319
REMARK  141  A    between atoms: _322  and  _324
REMARK  142  A    between atoms: _324  and  _325
REMARK  143  A    between atoms: _328  and  _330
REMARK  144  A    between atoms: _330  and  _331
REMARK  145  A    between atoms: _330  and  _333
REMARK  146  A    between atoms: _333  and  _334
REMARK  147  A    between atoms: _336  and  _338
REMARK  148  A    between atoms: _338  and  _339
REMARK  149  A    between atoms: _338  and  _341
REMARK  150  A    between atoms: _341  and  _342
REMARK  151  A    between atoms: _345  and  _347
REMARK  152  A    between atoms: _347  and  _348
REMARK  153  A    between atoms: _347  and  _350
REMARK  154  A    between atoms: _350  and  _351
REMARK  155  A    between atoms: _356  and  _358
REMARK  156  A    between atoms: _358  and  _359
REMARK  157  A    between atoms: _358  and  _361
REMARK  158  A    between atoms: _361  and  _362
REMARK  159  A    between atoms: _362  and  _363
REMARK  160  A    between atoms: _363  and  _364
REMARK  161  A    between atoms: _373  and  _375
REMARK  162  A    between atoms: _375  and  _376
REMARK  163  A    between atoms: _378  and  _380
REMARK  164  A    between atoms: _380  and  _381
REMARK  165  A    between atoms: _380  and  _383
REMARK  166  A    between atoms: _386  and  _388
REMARK  167  A    between atoms: _388  and  _389
REMARK  168  A    between atoms: _388  and  _391
REMARK  169  A    between atoms: _391  and  _392
REMARK  170  A    between atoms: _395  and  _397
REMARK  171  A    between atoms: _397  and  _398
REMARK  172  A    between atoms: _397  and  _400
REMARK  173  A    between atoms: _400  and  _401
REMARK  174  A    between atoms: _401  and  _402
REMARK  175  A    between atoms: _402  and  _403
REMARK  176  A    between atoms: _403  and  _404
REMARK  177  A    between atoms: _408  and  _410
REMARK  178  A    between atoms: _410  and  _411
REMARK  179  A    between atoms: _410  and  _413
REMARK  180  A    between atoms: _413  and  _414
REMARK  181  A    between atoms: _414  and  _415
REMARK  182  A    between atoms: _415  and  _416
REMARK  183  A    between atoms: _416  and  _417
REMARK  184  A    between atoms: _421  and  _423
REMARK  185  A    between atoms: _423  and  _424
REMARK  186  A    between atoms: _423  and  _426
REMARK  187  A    between atoms: _426  and  _427
REMARK  188  A    between atoms: _432  and  _434
REMARK  189  A    between atoms: _434  and  _435
REMARK  190  A    between atoms: _434  and  _437
REMARK  191  A    between atoms: _437  and  _438
REMARK  192  A    between atoms: _443  and  _445
REMARK  193  A    between atoms: _445  and  _446
REMARK  194  A    between atoms: _449  and  _451
REMARK  195  A    between atoms: _451  and  _452
REMARK  196  A    between atoms: _451  and  _454
REMARK  197  A    between atoms: _454  and  _455
REMARK  198  A    between atoms: _460  and  _462
REMARK  199  A    between atoms: _462  and  _463
REMARK  200  A    between atoms: _466  and  _468
REMARK  201  A    between atoms: _468  and  _469
REMARK  202  A    between atoms: _472  and  _474
REMARK  203  A    between atoms: _474  and  _475
REMARK  204  A    between atoms: _474  and  _477
REMARK  205  A    between atoms: _477  and  _478
REMARK  206  A    between atoms: _483  and  _485
REMARK  207  A    between atoms: _485  and  _486
REMARK  208  A    between atoms: _485  and  _488
REMARK  209  A    between atoms: _488  and  _489
REMARK  210  A    between atoms: _492  and  _494
REMARK  211  A    between atoms: _494  and  _495
REMARK  212  A    between atoms: _497  and  _499
REMARK  213  A    between atoms: _499  and  _500
REMARK  214  A    between atoms: _499  and  _502
REMARK  215  A    between atoms: _502  and  _503
REMARK  216  A    between atoms: _503  and  _504
REMARK  217  A    between atoms: _507  and  _509
REMARK  218  A    between atoms: _509  and  _510
REMARK  219  A    between atoms: _509  and  _512
REMARK  220  A    between atoms: _512  and  _513
REMARK  221  A    between atoms: _516  and  _518
REMARK  222  A    between atoms: _518  and  _519
REMARK  223  A    between atoms: _518  and  _521
REMARK  224  A    between atoms: _521  and  _522
REMARK  225  A    between atoms: _524  and  _526
REMARK  226  A    between atoms: _526  and  _527
REMARK  227  A    between atoms: _526  and  _529
REMARK  228  A    between atoms: _529  and  _530
REMARK  229  A    between atoms: _533  and  _535
REMARK  230  A    between atoms: _535  and  _536
REMARK  231  A    between atoms: _535  and  _538
REMARK  232  A    between atoms: _538  and  _539
REMARK  233  A    between atoms: _539  and  _540
REMARK  234  A    between atoms: _542  and  _544
REMARK  235  A    between atoms: _544  and  _545
REMARK  236  A    between atoms: _548  and  _550
REMARK  237  A    between atoms: _550  and  _551
REMARK  238  A    between atoms: _554  and  _556
REMARK  239  A    between atoms: _556  and  _557
REMARK  240  A    between atoms: _556  and  _559
REMARK  241  A    between atoms: _559  and  _560
REMARK  242  A    between atoms: _563  and  _565
REMARK  243  A    between atoms: _565  and  _566
REMARK  244  A    between atoms: _569  and  _571
REMARK  245  A    between atoms: _571  and  _572
REMARK                            x       y       z     vdW  Elec       q    Type
REMARK                         _______ _______ _______ _____ _____    ______ ____
ROOT
ATOM      1  O   HOH     1      69.409  11.205  -4.676  0.00  0.00    +0.000 OA
ENDROOT
TORSDOF 0
REMARK  Name = ../refined-set-2016/3ccz/3ccz_pocket.pdb
REMARK  245 active torsions:
REMARK  status: ('A' for Active; 'I' for Inactive)
REMARK    1  A    between atoms: _1  and  _3
REMARK    2  A    between atoms: _3  and  _4
REMARK    3  A    between atoms: _3  and  _6
REMARK    4  A    between atoms: _6  and  _7
REMARK    5  A    between atoms: _7  and  _8
REMARK    6  A    between atoms: _11  and  _13
REMARK    7  A    between atoms: _13  and  _14
REMARK    8  A    between atoms: _13  and  _16
REMARK    9  A    between atoms: _16  and  _17
REMARK   10  A    between atoms: _20  and  _22
REMARK   11  A    between atoms: _22  and  _23
REMARK   12  A    between atoms: _22  and  _25
REMARK   13  A    between atoms: _25  and  _26
REMARK   14  A    between atoms: _26  and  _27
REMARK   15  A    between atoms: _27  and  _28
REMARK   16  A    between atoms: _37  and  _39
REMARK   17  A    between atoms: _39  and  _40
REMARK   18  A    between atoms: _43  and  _44
REMARK   19  A    between atoms: _49  and  _51
REMARK   20  A    between atoms: _51  and  _52
REMARK   21  A    between atoms: _51  and  _54
REMARK   22  A    between atoms: _54  and  _55
REMARK   23  A    between atoms: _55  and  _56
REMARK   24  A    between atoms: _58  and  _60
REMARK   25  A    between atoms: _60  and  _61
REMARK   26  A    between atoms: _60  and  _63
REMARK   27  A    between atoms: _63  and  _64
REMARK   28  A    between atoms: _64  and  _65
REMARK   29  A    between atoms: _67  and  _69
REMARK   30  A    between atoms: _69  and  _70
REMARK   31  A    between atoms: _69  and  _72
REMARK   32  A    between atoms: _72  and  _73
REMARK   33  A    between atoms: _78  and  _80
REMARK   34  A    between atoms: _80  and  _81
REMARK   35  A    between atoms: _80  and  _83
REMARK   36  A    between atoms: _83  and  _84
REMARK   37  A    between atoms: _84  and  _85
REMARK   38  A    between atoms: _87  and  _89
REMARK   39  A    between atoms: _89  and  _90
REMARK   40  A    between atoms: _89  and  _92
REMARK   41  A    between atoms: _92  and  _93
REMARK   42  A    between atoms: _96  and  _98
REMARK   43  A    between atoms: _98  and  _99
REMARK   44  A    between atoms: _98  and  _101
REMARK   45  A    between atoms: _101  and  _102
REMARK   46  A    between atoms: _104  and  _106
REMARK   47  A    between atoms: _106  and  _107
REMARK   48  A    between atoms: _106  and  _109
REMARK   49  A    between atoms: _109  and  _110
REMARK   50  A    between atoms: _110  and  _111
REMARK   51  A    between atoms: _111  and  _112
REMARK   52  A    between atoms: _112  and  _113
REMARK   53  A    between atoms: _117  and  _119
REMARK   54  A    between atoms: _119  and  _120
REMARK   55  A    between atoms: _119  and  _122
REMARK   56  A    between atoms: _122  and  _123
REMARK   57  A    between atoms: _126  and  _128
REMARK   58  A    between atoms: _128  and  _129
REMARK   59  A    between atoms: _128  and  _131
REMARK   60  A    between atoms: _131  and  _132
REMARK   61  A    between atoms: _132  and  _133
REMARK   62  A    between atoms: _136  and  _138
REMARK   63  A    between atoms: _138  and  _139
REMARK   64  A    between atoms: _142  and  _144
REMARK   65  A    between atoms: _144  and  _145
REMARK   66  A    between atoms: _144  and  _147
REMARK   67  A    between atoms: _150  and  _152
REMARK   68  A    between atoms: _152  and  _153
REMARK   69  A    between atoms: _152  and  _155
REMARK   70  A    between atoms: _155  and  _156
REMARK   71  A    between atoms: _158  and  _160
REMARK   72  A    between atoms: _160  and  _161
REMARK   73  A    between atoms: _163  and  _165
REMARK   74  A    between atoms: _165  and  _166
REMARK   75  A    between atoms: _165  and  _168
REMARK   76  A    between atoms: _168  and  _169
REMARK   77  A    between atoms: _174  and  _176
REMARK   78  A    between atoms: _176  and  _177
REMARK   79  A    between atoms: _176  and  _179
REMARK   80  A    between atoms: _179  and  _180
REMARK   81  A    between atoms: _185  and  _186
REMARK   82  A    between atoms: _188  and  _190
REMARK   83  A    between atoms: _190  and  _191
REMARK   84  A    between atoms: _190  and  _193
REMARK   85  A    between atoms: _195  and  _197
REMARK   86  A    between atoms: _197  and  _198
REMARK   87  A    between atoms: _197  and  _200
REMARK   88  A    between atoms: _200  and  _201
REMARK   89  A    between atoms: _204  and  _206
REMARK   90  A    between atoms: _206  and  _207
REMARK   91  A    between atoms: _206  and  _209
REMARK   92  A    between atoms: _209  and  _210
REMARK   93  A    between atoms: _213  and  _215
REMARK   94  A    between atoms: _215  and  _216
REMARK   95  A    between atoms: _215  and  _218
REMARK   96  A    between atoms: _218  and  _219
REMARK   97  A    between atoms: _219  and  _220
REMARK   98  A    between atoms: _220  and  _221
REMARK   99  A    between atoms: _221  and  _222
REMARK  100  A    between atoms: _226  and  _228
REMARK  101  A    between atoms: _228  and  _229
REMARK  102  A    between atoms: _228  and  _231
REMARK  103  A    between atoms: _231  and  _232
REMARK  104  A    between atoms: _232  and  _233
REMARK  105  A    between atoms: _233  and  _234
REMARK  106  A    between atoms: _234  and  _235
REMARK  107  A    between atoms: _239  and  _241
REMARK  108  A    between atoms: _241  and  _242
REMARK  109  A    between atoms: _241  and  _244
REMARK  110  A    between atoms: _244  and  _245
REMARK  111  A    between atoms: _245  and  _246
REMARK  112  A    between atoms: _246  and  _247
REMARK  113  A    between atoms: _256  and  _258
REMARK  114  A    between atoms: _258  and  _259
REMARK  115  A    between atoms: _258  and  _261
REMARK  116  A    between atoms: _261  and  _262
REMARK  117  A    between atoms: _265  and  _267
REMARK  118  A    between atoms: _267  and  _268
REMARK  119  A    between atoms: _271  and  _273
REMARK  120  A    between atoms: _273  and  _274
REMARK  121  A    between atoms: _273  and  _276
REMARK  122  A    between atoms: _276  and  _277
REMARK  123  A    between atoms: _277  and  _278
REMARK  124  A    between atoms: _283  and  _285
REMARK  125  A    between atoms: _285  and  _286
REMARK  126  A    between atoms: _285  and  _288
REMARK  127  A    between atoms: _288  and  _289
REMARK  128  A    between atoms: _289  and  _290
REMARK  129  A    between atoms: _293  and  _295
REMARK  130  A    between atoms: _295  and  _296
REMARK  131  A    between atoms: _298  and  _300
REMARK  132  A    between atoms: _300  and  _301
REMARK  133  A    between atoms: _300  and  _303
REMARK  134  A    between atoms: _305  and  _307
REMARK  135  A    between atoms: _307  and  _308
REMARK  136  A    between atoms: _307  and  _310
REMARK  137  A    between atoms: _310  and  _311
REMARK  138  A    between atoms: _314  and  _316
REMARK  139  A    between atoms: _316  and  _317
REMARK  140  A    between atoms: _316  and  _319
REMARK  141  A    between atoms: _322  and  _324
REMARK  142  A    between atoms: _324  and  _325
REMARK  143  A    between atoms: _328  and  _330
REMARK  144  A    between atoms: _330  and  _331
REMARK  145  A    between atoms: _330  and  _333
REMARK  146  A    between atoms: _333  and  _334
REMARK  147  A    between atoms: _336  and  _338
REMARK  148  A    between atoms: _338  and  _339
REMARK  149  A    between atoms: _338  and  _341
REMARK  150  A    between atoms: _341  and  _342
REMARK  151  A    between atoms: _345  and  _347
REMARK  152  A    between atoms: _347  and  _348
REMARK  153  A    between atoms: _347  and  _350
REMARK  154  A    between atoms: _350  and  _351
REMARK  155  A    between atoms: _356  and  _358
REMARK  156  A    between atoms: _358  and  _359
REMARK  157  A    between atoms: _358  and  _361
REMARK  158  A    between atoms: _361  and  _362
REMARK  159  A    between atoms: _362  and  _363
REMARK  160  A    between atoms: _363  and  _364
REMARK  161  A    between atoms: _373  and  _375
REMARK  162  A    between atoms: _375  and  _376
REMARK  163  A    between atoms: _378  and  _380
REMARK  164  A    between atoms: _380  and  _381
REMARK  165  A    between atoms: _380  and  _383
REMARK  166  A    between atoms: _386  and  _388
REMARK  167  A    between atoms: _388  and  _389
REMARK  168  A    between atoms: _388  and  _391
REMARK  169  A    between atoms: _391  and  _392
REMARK  170  A    between atoms: _395  and  _397
REMARK  171  A    between atoms: _397  and  _398
REMARK  172  A    between atoms: _397  and  _400
REMARK  173  A    between atoms: _400  and  _401
REMARK  174  A    between atoms: _401  and  _402
REMARK  175  A    between atoms: _402  and  _403
REMARK  176  A    between atoms: _403  and  _404
REMARK  177  A    between atoms: _408  and  _410
REMARK  178  A    between atoms: _410  and  _411
REMARK  179  A    between atoms: _410  and  _413
REMARK  180  A    between atoms: _413  and  _414
REMARK  181  A    between atoms: _414  and  _415
REMARK  182  A    between atoms: _415  and  _416
REMARK  183  A    between atoms: _416  and  _417
REMARK  184  A    between atoms: _421  and  _423
REMARK  185  A    between atoms: _423  and  _424
REMARK  186  A    between atoms: _423  and  _426
REMARK  187  A    between atoms: _426  and  _427
REMARK  188  A    between atoms: _432  and  _434
REMARK  189  A    between atoms: _434  and  _435
REMARK  190  A    between atoms: _434  and  _437
REMARK  191  A    between atoms: _437  and  _438
REMARK  192  A    between atoms: _443  and  _445
REMARK  193  A    between atoms: _445  and  _446
REMARK  194  A    between atoms: _449  and  _451
REMARK  195  A    between atoms: _451  and  _452
REMARK  196  A    between atoms: _451  and  _454
REMARK  197  A    between atoms: _454  and  _455
REMARK  198  A    between atoms: _460  and  _462
REMARK  199  A    between atoms: _462  and  _463
REMARK  200  A    between atoms: _466  and  _468
REMARK  201  A    between atoms: _468  and  _469
REMARK  202  A    between atoms: _472  and  _474
REMARK  203  A    between atoms: _474  and  _475
REMARK  204  A    between atoms: _474  and  _477
REMARK  205  A    between atoms: _477  and  _478
REMARK  206  A    between atoms: _483  and  _485
REMARK  207  A    between atoms: _485  and  _486
REMARK  208  A    between atoms: _485  and  _488
REMARK  209  A    between atoms: _488  and  _489
REMARK  210  A    between atoms: _492  and  _494
REMARK  211  A    between atoms: _494  and  _495
REMARK  212  A    between atoms: _497  and  _499
REMARK  213  A    between atoms: _499  and  _500
REMARK  214  A    between atoms: _499  and  _502
REMARK  215  A    between atoms: _502  and  _503
REMARK  216  A    between atoms: _503  and  _504
REMARK  217  A    between atoms: _507  and  _509
REMARK  218  A    between atoms: _509  and  _510
REMARK  219  A    between atoms: _509  and  _512
REMARK  220  A    between atoms: _512  and  _513
REMARK  221  A    between atoms: _516  and  _518
REMARK  222  A    between atoms: _518  and  _519
REMARK  223  A    between atoms: _518  and  _521
REMARK  224  A    between atoms: _521  and  _522
REMARK  225  A    between atoms: _524  and  _526
REMARK  226  A    between atoms: _526  and  _527
REMARK  227  A    between atoms: _526  and  _529
REMARK  228  A    between atoms: _529  and  _530
REMARK  229  A    between atoms: _533  and  _535
REMARK  230  A    between atoms: _535  and  _536
REMARK  231  A    between atoms: _535  and  _538
REMARK  232  A    between atoms: _538  and  _539
REMARK  233  A    between atoms: _539  and  _540
REMARK  234  A    between atoms: _542  and  _544
REMARK  235  A    between atoms: _544  and  _545
REMARK  236  A    between atoms: _548  and  _550
REMARK  237  A    between atoms: _550  and  _551
REMARK  238  A    between atoms: _554  and  _556
REMARK  239  A    between atoms: _556  and  _557
REMARK  240  A    between atoms: _556  and  _559
REMARK  241  A    between atoms: _559  and  _560
REMARK  242  A    between atoms: _563  and  _565
REMARK  243  A    between atoms: _565  and  _566
REMARK  244  A    between atoms: _569  and  _571
REMARK  245  A    between atoms: _571  and  _572
REMARK                            x       y       z     vdW  Elec       q    Type
REMARK                         _______ _______ _______ _____ _____    ______ ____
ROOT
ATOM      1  O   HOH     1      83.304  12.973  -1.950  0.00  0.00    +0.000 OA
ENDROOT
TORSDOF 0
REMARK  Name = ../refined-set-2016/3ccz/3ccz_pocket.pdb
REMARK  245 active torsions:
REMARK  status: ('A' for Active; 'I' for Inactive)
REMARK    1  A    between atoms: _1  and  _3
REMARK    2  A    between atoms: _3  and  _4
REMARK    3  A    between atoms: _3  and  _6
REMARK    4  A    between atoms: _6  and  _7
REMARK    5  A    between atoms: _7  and  _8
REMARK    6  A    between atoms: _11  and  _13
REMARK    7  A    between atoms: _13  and  _14
REMARK    8  A    between atoms: _13  and  _16
REMARK    9  A    between atoms: _16  and  _17
REMARK   10  A    between atoms: _20  and  _22
REMARK   11  A    between atoms: _22  and  _23
REMARK   12  A    between atoms: _22  and  _25
REMARK   13  A    between atoms: _25  and  _26
REMARK   14  A    between atoms: _26  and  _27
REMARK   15  A    between atoms: _27  and  _28
REMARK   16  A    between atoms: _37  and  _39
REMARK   17  A    between atoms: _39  and  _40
REMARK   18  A    between atoms: _43  and  _44
REMARK   19  A    between atoms: _49  and  _51
REMARK   20  A    between atoms: _51  and  _52
REMARK   21  A    between atoms: _51  and  _54
REMARK   22  A    between atoms: _54  and  _55
REMARK   23  A    between atoms: _55  and  _56
REMARK   24  A    between atoms: _58  and  _60
REMARK   25  A    between atoms: _60  and  _61
REMARK   26  A    between atoms: _60  and  _63
REMARK   27  A    between atoms: _63  and  _64
REMARK   28  A    between atoms: _64  and  _65
REMARK   29  A    between atoms: _67  and  _69
REMARK   30  A    between atoms: _69  and  _70
REMARK   31  A    between atoms: _69  and  _72
REMARK   32  A    between atoms: _72  and  _73
REMARK   33  A    between atoms: _78  and  _80
REMARK   34  A    between atoms: _80  and  _81
REMARK   35  A    between atoms: _80  and  _83
REMARK   36  A    between atoms: _83  and  _84
REMARK   37  A    between atoms: _84  and  _85
REMARK   38  A    between atoms: _87  and  _89
REMARK   39  A    between atoms: _89  and  _90
REMARK   40  A    between atoms: _89  and  _92
REMARK   41  A    between atoms: _92  and  _93
REMARK   42  A    between atoms: _96  and  _98
REMARK   43  A    between atoms: _98  and  _99
REMARK   44  A    between atoms: _98  and  _101
REMARK   45  A    between atoms: _101  and  _102
REMARK   46  A    between atoms: _104  and  _106
REMARK   47  A    between atoms: _106  and  _107
REMARK   48  A    between atoms: _106  and  _109
REMARK   49  A    between atoms: _109  and  _110
REMARK   50  A    between atoms: _110  and  _111
REMARK   51  A    between atoms: _111  and  _112
REMARK   52  A    between atoms: _112  and  _113
REMARK   53  A    between atoms: _117  and  _119
REMARK   54  A    between atoms: _119  and  _120
REMARK   55  A    between atoms: _119  and  _122
REMARK   56  A    between atoms: _122  and  _123
REMARK   57  A    between atoms: _126  and  _128
REMARK   58  A    between atoms: _128  and  _129
REMARK   59  A    between atoms: _128  and  _131
REMARK   60  A    between atoms: _131  and  _132
REMARK   61  A    between atoms: _132  and  _133
REMARK   62  A    between atoms: _136  and  _138
REMARK   63  A    between atoms: _138  and  _139
REMARK   64  A    between atoms: _142  and  _144
REMARK   65  A    between atoms: _144  and  _145
REMARK   66  A    between atoms: _144  and  _147
REMARK   67  A    between atoms: _150  and  _152
REMARK   68  A    between atoms: _152  and  _153
REMARK   69  A    between atoms: _152  and  _155
REMARK   70  A    between atoms: _155  and  _156
REMARK   71  A    between atoms: _158  and  _160
REMARK   72  A    between atoms: _160  and  _161
REMARK   73  A    between atoms: _163  and  _165
REMARK   74  A    between atoms: _165  and  _166
REMARK   75  A    between atoms: _165  and  _168
REMARK   76  A    between atoms: _168  and  _169
REMARK   77  A    between atoms: _174  and  _176
REMARK   78  A    between atoms: _176  and  _177
REMARK   79  A    between atoms: _176  and  _179
REMARK   80  A    between atoms: _179  and  _180
REMARK   81  A    between atoms: _185  and  _186
REMARK   82  A    between atoms: _188  and  _190
REMARK   83  A    between atoms: _190  and  _191
REMARK   84  A    between atoms: _190  and  _193
REMARK   85  A    between atoms: _195  and  _197
REMARK   86  A    between atoms: _197  and  _198
REMARK   87  A    between atoms: _197  and  _200
REMARK   88  A    between atoms: _200  and  _201
REMARK   89  A    between atoms: _204  and  _206
REMARK   90  A    between atoms: _206  and  _207
REMARK   91  A    between atoms: _206  and  _209
REMARK   92  A    between atoms: _209  and  _210
REMARK   93  A    between atoms: _213  and  _215
REMARK   94  A    between atoms: _215  and  _216
REMARK   95  A    between atoms: _215  and  _218
REMARK   96  A    between atoms: _218  and  _219
REMARK   97  A    between atoms: _219  and  _220
REMARK   98  A    between atoms: _220  and  _221
REMARK   99  A    between atoms: _221  and  _222
REMARK  100  A    between atoms: _226  and  _228
REMARK  101  A    between atoms: _228  and  _229
REMARK  102  A    between atoms: _228  and  _231
REMARK  103  A    between atoms: _231  and  _232
REMARK  104  A    between atoms: _232  and  _233
REMARK  105  A    between atoms: _233  and  _234
REMARK  106  A    between atoms: _234  and  _235
REMARK  107  A    between atoms: _239  and  _241
REMARK  108  A    between atoms: _241  and  _242
REMARK  109  A    between atoms: _241  and  _244
REMARK  110  A    between atoms: _244  and  _245
REMARK  111  A    between atoms: _245  and  _246
REMARK  112  A    between atoms: _246  and  _247
REMARK  113  A    between atoms: _256  and  _258
REMARK  114  A    between atoms: _258  and  _259
REMARK  115  A    between atoms: _258  and  _261
REMARK  116  A    between atoms: _261  and  _262
REMARK  117  A    between atoms: _265  and  _267
REMARK  118  A    between atoms: _267  and  _268
REMARK  119  A    between atoms: _271  and  _273
REMARK  120  A    between atoms: _273  and  _274
REMARK  121  A    between atoms: _273  and  _276
REMARK  122  A    between atoms: _276  and  _277
REMARK  123  A    between atoms: _277  and  _278
REMARK  124  A    between atoms: _283  and  _285
REMARK  125  A    between atoms: _285  and  _286
REMARK  126  A    between atoms: _285  and  _288
REMARK  127  A    between atoms: _288  and  _289
REMARK  128  A    between atoms: _289  and  _290
REMARK  129  A    between atoms: _293  and  _295
REMARK  130  A    between atoms: _295  and  _296
REMARK  131  A    between atoms: _298  and  _300
REMARK  132  A    between atoms: _300  and  _301
REMARK  133  A    between atoms: _300  and  _303
REMARK  134  A    between atoms: _305  and  _307
REMARK  135  A    between atoms: _307  and  _308
REMARK  136  A    between atoms: _307  and  _310
REMARK  137  A    between atoms: _310  and  _311
REMARK  138  A    between atoms: _314  and  _316
REMARK  139  A    between atoms: _316  and  _317
REMARK  140  A    between atoms: _316  and  _319
REMARK  141  A    between atoms: _322  and  _324
REMARK  142  A    between atoms: _324  and  _325
REMARK  143  A    between atoms: _328  and  _330
REMARK  144  A    between atoms: _330  and  _331
REMARK  145  A    between atoms: _330  and  _333
REMARK  146  A    between atoms: _333  and  _334
REMARK  147  A    between atoms: _336  and  _338
REMARK  148  A    between atoms: _338  and  _339
REMARK  149  A    between atoms: _338  and  _341
REMARK  150  A    between atoms: _341  and  _342
REMARK  151  A    between atoms: _345  and  _347
REMARK  152  A    between atoms: _347  and  _348
REMARK  153  A    between atoms: _347  and  _350
REMARK  154  A    between atoms: _350  and  _351
REMARK  155  A    between atoms: _356  and  _358
REMARK  156  A    between atoms: _358  and  _359
REMARK  157  A    between atoms: _358  and  _361
REMARK  158  A    between atoms: _361  and  _362
REMARK  159  A    between atoms: _362  and  _363
REMARK  160  A    between atoms: _363  and  _364
REMARK  161  A    between atoms: _373  and  _375
REMARK  162  A    between atoms: _375  and  _376
REMARK  163  A    between atoms: _378  and  _380
REMARK  164  A    between atoms: _380  and  _381
REMARK  165  A    between atoms: _380  and  _383
REMARK  166  A    between atoms: _386  and  _388
REMARK  167  A    between atoms: _388  and  _389
REMARK  168  A    between atoms: _388  and  _391
REMARK  169  A    between atoms: _391  and  _392
REMARK  170  A    between atoms: _395  and  _397
REMARK  171  A    between atoms: _397  and  _398
REMARK  172  A    between atoms: _397  and  _400
REMARK  173  A    between atoms: _400  and  _401
REMARK  174  A    between atoms: _401  and  _402
REMARK  175  A    between atoms: _402  and  _403
REMARK  176  A    between atoms: _403  and  _404
REMARK  177  A    between atoms: _408  and  _410
REMARK  178  A    between atoms: _410  and  _411
REMARK  179  A    between atoms: _410  and  _413
REMARK  180  A    between atoms: _413  and  _414
REMARK  181  A    between atoms: _414  and  _415
REMARK  182  A    between atoms: _415  and  _416
REMARK  183  A    between atoms: _416  and  _417
REMARK  184  A    between atoms: _421  and  _423
REMARK  185  A    between atoms: _423  and  _424
REMARK  186  A    between atoms: _423  and  _426
REMARK  187  A    between atoms: _426  and  _427
REMARK  188  A    between atoms: _432  and  _434
REMARK  189  A    between atoms: _434  and  _435
REMARK  190  A    between atoms: _434  and  _437
REMARK  191  A    between atoms: _437  and  _438
REMARK  192  A    between atoms: _443  and  _445
REMARK  193  A    between atoms: _445  and  _446
REMARK  194  A    between atoms: _449  and  _451
REMARK  195  A    between atoms: _451  and  _452
REMARK  196  A    between atoms: _451  and  _454
REMARK  197  A    between atoms: _454  and  _455
REMARK  198  A    between atoms: _460  and  _462
REMARK  199  A    between atoms: _462  and  _463
REMARK  200  A    between atoms: _466  and  _468
REMARK  201  A    between atoms: _468  and  _469
REMARK  202  A    between atoms: _472  and  _474
REMARK  203  A    between atoms: _474  and  _475
REMARK  204  A    between atoms: _474  and  _477
REMARK  205  A    between atoms: _477  and  _478
REMARK  206  A    between atoms: _483  and  _485
REMARK  207  A    between atoms: _485  and  _486
REMARK  208  A    between atoms: _485  and  _488
REMARK  209  A    between atoms: _488  and  _489
REMARK  210  A    between atoms: _492  and  _494
REMARK  211  A    between atoms: _494  and  _495
REMARK  212  A    between atoms: _497  and  _499
REMARK  213  A    between atoms: _499  and  _500
REMARK  214  A    between atoms: _499  and  _502
REMARK  215  A    between atoms: _502  and  _503
REMARK  216  A    between atoms: _503  and  _504
REMARK  217  A    between atoms: _507  and  _509
REMARK  218  A    between atoms: _509  and  _510
REMARK  219  A    between atoms: _509  and  _512
REMARK  220  A    between atoms: _512  and  _513
REMARK  221  A    between atoms: _516  and  _518
REMARK  222  A    between atoms: _518  and  _519
REMARK  223  A    between atoms: _518  and  _521
REMARK  224  A    between atoms: _521  and  _522
REMARK  225  A    between atoms: _524  and  _526
REMARK  226  A    between atoms: _526  and  _527
REMARK  227  A    between atoms: _526  and  _529
REMARK  228  A    between atoms: _529  and  _530
REMARK  229  A    between atoms: _533  and  _535
REMARK  230  A    between atoms: _535  and  _536
REMARK  231  A    between atoms: _535  and  _538
REMARK  232  A    between atoms: _538  and  _539
REMARK  233  A    between atoms: _539  and  _540
REMARK  234  A    between atoms: _542  and  _544
REMARK  235  A    between atoms: _544  and  _545
REMARK  236  A    between atoms: _548  and  _550
REMARK  237  A    between atoms: _550  and  _551
REMARK  238  A    between atoms: _554  and  _556
REMARK  239  A    between atoms: _556  and  _557
REMARK  240  A    between atoms: _556  and  _559
REMARK  241  A    between atoms: _559  and  _560
REMARK  242  A    between atoms: _563  and  _565
REMARK  243  A    between atoms: _565  and  _566
REMARK  244  A    between atoms: _569  and  _571
REMARK  245  A    between atoms: _571  and  _572
REMARK                            x       y       z     vdW  Elec       q    Type
REMARK                         _______ _______ _______ _____ _____    ______ ____
ROOT
ATOM      1  O   HOH     1      86.307  17.805  -9.071  0.00  0.00    +0.000 OA
ENDROOT
TORSDOF 0
REMARK  Name = ../refined-set-2016/3ccz/3ccz_pocket.pdb
REMARK  245 active torsions:
REMARK  status: ('A' for Active; 'I' for Inactive)
REMARK    1  A    between atoms: _1  and  _3
REMARK    2  A    between atoms: _3  and  _4
REMARK    3  A    between atoms: _3  and  _6
REMARK    4  A    between atoms: _6  and  _7
REMARK    5  A    between atoms: _7  and  _8
REMARK    6  A    between atoms: _11  and  _13
REMARK    7  A    between atoms: _13  and  _14
REMARK    8  A    between atoms: _13  and  _16
REMARK    9  A    between atoms: _16  and  _17
REMARK   10  A    between atoms: _20  and  _22
REMARK   11  A    between atoms: _22  and  _23
REMARK   12  A    between atoms: _22  and  _25
REMARK   13  A    between atoms: _25  and  _26
REMARK   14  A    between atoms: _26  and  _27
REMARK   15  A    between atoms: _27  and  _28
REMARK   16  A    between atoms: _37  and  _39
REMARK   17  A    between atoms: _39  and  _40
REMARK   18  A    between atoms: _43  and  _44
REMARK   19  A    between atoms: _49  and  _51
REMARK   20  A    between atoms: _51  and  _52
REMARK   21  A    between atoms: _51  and  _54
REMARK   22  A    between atoms: _54  and  _55
REMARK   23  A    between atoms: _55  and  _56
REMARK   24  A    between atoms: _58  and  _60
REMARK   25  A    between atoms: _60  and  _61
REMARK   26  A    between atoms: _60  and  _63
REMARK   27  A    between atoms: _63  and  _64
REMARK   28  A    between atoms: _64  and  _65
REMARK   29  A    between atoms: _67  and  _69
REMARK   30  A    between atoms: _69  and  _70
REMARK   31  A    between atoms: _69  and  _72
REMARK   32  A    between atoms: _72  and  _73
REMARK   33  A    between atoms: _78  and  _80
REMARK   34  A    between atoms: _80  and  _81
REMARK   35  A    between atoms: _80  and  _83
REMARK   36  A    between atoms: _83  and  _84
REMARK   37  A    between atoms: _84  and  _85
REMARK   38  A    between atoms: _87  and  _89
REMARK   39  A    between atoms: _89  and  _90
REMARK   40  A    between atoms: _89  and  _92
REMARK   41  A    between atoms: _92  and  _93
REMARK   42  A    between atoms: _96  and  _98
REMARK   43  A    between atoms: _98  and  _99
REMARK   44  A    between atoms: _98  and  _101
REMARK   45  A    between atoms: _101  and  _102
REMARK   46  A    between atoms: _104  and  _106
REMARK   47  A    between atoms: _106  and  _107
REMARK   48  A    between atoms: _106  and  _109
REMARK   49  A    between atoms: _109  and  _110
REMARK   50  A    between atoms: _110  and  _111
REMARK   51  A    between atoms: _111  and  _112
REMARK   52  A    between atoms: _112  and  _113
REMARK   53  A    between atoms: _117  and  _119
REMARK   54  A    between atoms: _119  and  _120
REMARK   55  A    between atoms: _119  and  _122
REMARK   56  A    between atoms: _122  and  _123
REMARK   57  A    between atoms: _126  and  _128
REMARK   58  A    between atoms: _128  and  _129
REMARK   59  A    between atoms: _128  and  _131
REMARK   60  A    between atoms: _131  and  _132
REMARK   61  A    between atoms: _132  and  _133
REMARK   62  A    between atoms: _136  and  _138
REMARK   63  A    between atoms: _138  and  _139
REMARK   64  A    between atoms: _142  and  _144
REMARK   65  A    between atoms: _144  and  _145
REMARK   66  A    between atoms: _144  and  _147
REMARK   67  A    between atoms: _150  and  _152
REMARK   68  A    between atoms: _152  and  _153
REMARK   69  A    between atoms: _152  and  _155
REMARK   70  A    between atoms: _155  and  _156
REMARK   71  A    between atoms: _158  and  _160
REMARK   72  A    between atoms: _160  and  _161
REMARK   73  A    between atoms: _163  and  _165
REMARK   74  A    between atoms: _165  and  _166
REMARK   75  A    between atoms: _165  and  _168
REMARK   76  A    between atoms: _168  and  _169
REMARK   77  A    between atoms: _174  and  _176
REMARK   78  A    between atoms: _176  and  _177
REMARK   79  A    between atoms: _176  and  _179
REMARK   80  A    between atoms: _179  and  _180
REMARK   81  A    between atoms: _185  and  _186
REMARK   82  A    between atoms: _188  and  _190
REMARK   83  A    between atoms: _190  and  _191
REMARK   84  A    between atoms: _190  and  _193
REMARK   85  A    between atoms: _195  and  _197
REMARK   86  A    between atoms: _197  and  _198
REMARK   87  A    between atoms: _197  and  _200
REMARK   88  A    between atoms: _200  and  _201
REMARK   89  A    between atoms: _204  and  _206
REMARK   90  A    between atoms: _206  and  _207
REMARK   91  A    between atoms: _206  and  _209
REMARK   92  A    between atoms: _209  and  _210
REMARK   93  A    between atoms: _213  and  _215
REMARK   94  A    between atoms: _215  and  _216
REMARK   95  A    between atoms: _215  and  _218
REMARK   96  A    between atoms: _218  and  _219
REMARK   97  A    between atoms: _219  and  _220
REMARK   98  A    between atoms: _220  and  _221
REMARK   99  A    between atoms: _221  and  _222
REMARK  100  A    between atoms: _226  and  _228
REMARK  101  A    between atoms: _228  and  _229
REMARK  102  A    between atoms: _228  and  _231
REMARK  103  A    between atoms: _231  and  _232
REMARK  104  A    between atoms: _232  and  _233
REMARK  105  A    between atoms: _233  and  _234
REMARK  106  A    between atoms: _234  and  _235
REMARK  107  A    between atoms: _239  and  _241
REMARK  108  A    between atoms: _241  and  _242
REMARK  109  A    between atoms: _241  and  _244
REMARK  110  A    between atoms: _244  and  _245
REMARK  111  A    between atoms: _245  and  _246
REMARK  112  A    between atoms: _246  and  _247
REMARK  113  A    between atoms: _256  and  _258
REMARK  114  A    between atoms: _258  and  _259
REMARK  115  A    between atoms: _258  and  _261
REMARK  116  A    between atoms: _261  and  _262
REMARK  117  A    between atoms: _265  and  _267
REMARK  118  A    between atoms: _267  and  _268
REMARK  119  A    between atoms: _271  and  _273
REMARK  120  A    between atoms: _273  and  _274
REMARK  121  A    between atoms: _273  and  _276
REMARK  122  A    between atoms: _276  and  _277
REMARK  123  A    between atoms: _277  and  _278
REMARK  124  A    between atoms: _283  and  _285
REMARK  125  A    between atoms: _285  and  _286
REMARK  126  A    between atoms: _285  and  _288
REMARK  127  A    between atoms: _288  and  _289
REMARK  128  A    between atoms: _289  and  _290
REMARK  129  A    between atoms: _293  and  _295
REMARK  130  A    between atoms: _295  and  _296
REMARK  131  A    between atoms: _298  and  _300
REMARK  132  A    between atoms: _300  and  _301
REMARK  133  A    between atoms: _300  and  _303
REMARK  134  A    between atoms: _305  and  _307
REMARK  135  A    between atoms: _307  and  _308
REMARK  136  A    between atoms: _307  and  _310
REMARK  137  A    between atoms: _310  and  _311
REMARK  138  A    between atoms: _314  and  _316
REMARK  139  A    between atoms: _316  and  _317
REMARK  140  A    between atoms: _316  and  _319
REMARK  141  A    between atoms: _322  and  _324
REMARK  142  A    between atoms: _324  and  _325
REMARK  143  A    between atoms: _328  and  _330
REMARK  144  A    between atoms: _330  and  _331
REMARK  145  A    between atoms: _330  and  _333
REMARK  146  A    between atoms: _333  and  _334
REMARK  147  A    between atoms: _336  and  _338
REMARK  148  A    between atoms: _338  and  _339
REMARK  149  A    between atoms: _338  and  _341
REMARK  150  A    between atoms: _341  and  _342
REMARK  151  A    between atoms: _345  and  _347
REMARK  152  A    between atoms: _347  and  _348
REMARK  153  A    between atoms: _347  and  _350
REMARK  154  A    between atoms: _350  and  _351
REMARK  155  A    between atoms: _356  and  _358
REMARK  156  A    between atoms: _358  and  _359
REMARK  157  A    between atoms: _358  and  _361
REMARK  158  A    between atoms: _361  and  _362
REMARK  159  A    between atoms: _362  and  _363
REMARK  160  A    between atoms: _363  and  _364
REMARK  161  A    between atoms: _373  and  _375
REMARK  162  A    between atoms: _375  and  _376
REMARK  163  A    between atoms: _378  and  _380
REMARK  164  A    between atoms: _380  and  _381
REMARK  165  A    between atoms: _380  and  _383
REMARK  166  A    between atoms: _386  and  _388
REMARK  167  A    between atoms: _388  and  _389
REMARK  168  A    between atoms: _388  and  _391
REMARK  169  A    between atoms: _391  and  _392
REMARK  170  A    between atoms: _395  and  _397
REMARK  171  A    between atoms: _397  and  _398
REMARK  172  A    between atoms: _397  and  _400
REMARK  173  A    between atoms: _400  and  _401
REMARK  174  A    between atoms: _401  and  _402
REMARK  175  A    between atoms: _402  and  _403
REMARK  176  A    between atoms: _403  and  _404
REMARK  177  A    between atoms: _408  and  _410
REMARK  178  A    between atoms: _410  and  _411
REMARK  179  A    between atoms: _410  and  _413
REMARK  180  A    between atoms: _413  and  _414
REMARK  181  A    between atoms: _414  and  _415
REMARK  182  A    between atoms: _415  and  _416
REMARK  183  A    between atoms: _416  and  _417
REMARK  184  A    between atoms: _421  and  _423
REMARK  185  A    between atoms: _423  and  _424
REMARK  186  A    between atoms: _423  and  _426
REMARK  187  A    between atoms: _426  and  _427
REMARK  188  A    between atoms: _432  and  _434
REMARK  189  A    between atoms: _434  and  _435
REMARK  190  A    between atoms: _434  and  _437
REMARK  191  A    between atoms: _437  and  _438
REMARK  192  A    between atoms: _443  and  _445
REMARK  193  A    between atoms: _445  and  _446
REMARK  194  A    between atoms: _449  and  _451
REMARK  195  A    between atoms: _451  and  _452
REMARK  196  A    between atoms: _451  and  _454
REMARK  197  A    between atoms: _454  and  _455
REMARK  198  A    between atoms: _460  and  _462
REMARK  199  A    between atoms: _462  and  _463
REMARK  200  A    between atoms: _466  and  _468
REMARK  201  A    between atoms: _468  and  _469
REMARK  202  A    between atoms: _472  and  _474
REMARK  203  A    between atoms: _474  and  _475
REMARK  204  A    between atoms: _474  and  _477
REMARK  205  A    between atoms: _477  and  _478
REMARK  206  A    between atoms: _483  and  _485
REMARK  207  A    between atoms: _485  and  _486
REMARK  208  A    between atoms: _485  and  _488
REMARK  209  A    between atoms: _488  and  _489
REMARK  210  A    between atoms: _492  and  _494
REMARK  211  A    between atoms: _494  and  _495
REMARK  212  A    between atoms: _497  and  _499
REMARK  213  A    between atoms: _499  and  _500
REMARK  214  A    between atoms: _499  and  _502
REMARK  215  A    between atoms: _502  and  _503
REMARK  216  A    between atoms: _503  and  _504
REMARK  217  A    between atoms: _507  and  _509
REMARK  218  A    between atoms: _509  and  _510
REMARK  219  A    between atoms: _509  and  _512
REMARK  220  A    between atoms: _512  and  _513
REMARK  221  A    between atoms: _516  and  _518
REMARK  222  A    between atoms: _518  and  _519
REMARK  223  A    between atoms: _518  and  _521
REMARK  224  A    between atoms: _521  and  _522
REMARK  225  A    between atoms: _524  and  _526
REMARK  226  A    between atoms: _526  and  _527
REMARK  227  A    between atoms: _526  and  _529
REMARK  228  A    between atoms: _529  and  _530
REMARK  229  A    between atoms: _533  and  _535
REMARK  230  A    between atoms: _535  and  _536
REMARK  231  A    between atoms: _535  and  _538
REMARK  232  A    between atoms: _538  and  _539
REMARK  233  A    between atoms: _539  and  _540
REMARK  234  A    between atoms: _542  and  _544
REMARK  235  A    between atoms: _544  and  _545
REMARK  236  A    between atoms: _548  and  _550
REMARK  237  A    between atoms: _550  and  _551
REMARK  238  A    between atoms: _554  and  _556
REMARK  239  A    between atoms: _556  and  _557
REMARK  240  A    between atoms: _556  and  _559
REMARK  241  A    between atoms: _559  and  _560
REMARK  242  A    between atoms: _563  and  _565
REMARK  243  A    between atoms: _565  and  _566
REMARK  244  A    between atoms: _569  and  _571
REMARK  245  A    between atoms: _571  and  _572
REMARK                            x       y       z     vdW  Elec       q    Type
REMARK                         _______ _______ _______ _____ _____    ______ ____
ROOT
ATOM      1  O   HOH     1      81.366   5.541  -6.803  0.00  0.00    +0.000 OA
ENDROOT
TORSDOF 0
REMARK  Name = ../refined-set-2016/3ccz/3ccz_pocket.pdb
REMARK  245 active torsions:
REMARK  status: ('A' for Active; 'I' for Inactive)
REMARK    1  A    between atoms: _1  and  _3
REMARK    2  A    between atoms: _3  and  _4
REMARK    3  A    between atoms: _3  and  _6
REMARK    4  A    between atoms: _6  and  _7
REMARK    5  A    between atoms: _7  and  _8
REMARK    6  A    between atoms: _11  and  _13
REMARK    7  A    between atoms: _13  and  _14
REMARK    8  A    between atoms: _13  and  _16
REMARK    9  A    between atoms: _16  and  _17
REMARK   10  A    between atoms: _20  and  _22
REMARK   11  A    between atoms: _22  and  _23
REMARK   12  A    between atoms: _22  and  _25
REMARK   13  A    between atoms: _25  and  _26
REMARK   14  A    between atoms: _26  and  _27
REMARK   15  A    between atoms: _27  and  _28
REMARK   16  A    between atoms: _37  and  _39
REMARK   17  A    between atoms: _39  and  _40
REMARK   18  A    between atoms: _43  and  _44
REMARK   19  A    between atoms: _49  and  _51
REMARK   20  A    between atoms: _51  and  _52
REMARK   21  A    between atoms: _51  and  _54
REMARK   22  A    between atoms: _54  and  _55
REMARK   23  A    between atoms: _55  and  _56
REMARK   24  A    between atoms: _58  and  _60
REMARK   25  A    between atoms: _60  and  _61
REMARK   26  A    between atoms: _60  and  _63
REMARK   27  A    between atoms: _63  and  _64
REMARK   28  A    between atoms: _64  and  _65
REMARK   29  A    between atoms: _67  and  _69
REMARK   30  A    between atoms: _69  and  _70
REMARK   31  A    between atoms: _69  and  _72
REMARK   32  A    between atoms: _72  and  _73
REMARK   33  A    between atoms: _78  and  _80
REMARK   34  A    between atoms: _80  and  _81
REMARK   35  A    between atoms: _80  and  _83
REMARK   36  A    between atoms: _83  and  _84
REMARK   37  A    between atoms: _84  and  _85
REMARK   38  A    between atoms: _87  and  _89
REMARK   39  A    between atoms: _89  and  _90
REMARK   40  A    between atoms: _89  and  _92
REMARK   41  A    between atoms: _92  and  _93
REMARK   42  A    between atoms: _96  and  _98
REMARK   43  A    between atoms: _98  and  _99
REMARK   44  A    between atoms: _98  and  _101
REMARK   45  A    between atoms: _101  and  _102
REMARK   46  A    between atoms: _104  and  _106
REMARK   47  A    between atoms: _106  and  _107
REMARK   48  A    between atoms: _106  and  _109
REMARK   49  A    between atoms: _109  and  _110
REMARK   50  A    between atoms: _110  and  _111
REMARK   51  A    between atoms: _111  and  _112
REMARK   52  A    between atoms: _112  and  _113
REMARK   53  A    between atoms: _117  and  _119
REMARK   54  A    between atoms: _119  and  _120
REMARK   55  A    between atoms: _119  and  _122
REMARK   56  A    between atoms: _122  and  _123
REMARK   57  A    between atoms: _126  and  _128
REMARK   58  A    between atoms: _128  and  _129
REMARK   59  A    between atoms: _128  and  _131
REMARK   60  A    between atoms: _131  and  _132
REMARK   61  A    between atoms: _132  and  _133
REMARK   62  A    between atoms: _136  and  _138
REMARK   63  A    between atoms: _138  and  _139
REMARK   64  A    between atoms: _142  and  _144
REMARK   65  A    between atoms: _144  and  _145
REMARK   66  A    between atoms: _144  and  _147
REMARK   67  A    between atoms: _150  and  _152
REMARK   68  A    between atoms: _152  and  _153
REMARK   69  A    between atoms: _152  and  _155
REMARK   70  A    between atoms: _155  and  _156
REMARK   71  A    between atoms: _158  and  _160
REMARK   72  A    between atoms: _160  and  _161
REMARK   73  A    between atoms: _163  and  _165
REMARK   74  A    between atoms: _165  and  _166
REMARK   75  A    between atoms: _165  and  _168
REMARK   76  A    between atoms: _168  and  _169
REMARK   77  A    between atoms: _174  and  _176
REMARK   78  A    between atoms: _176  and  _177
REMARK   79  A    between atoms: _176  and  _179
REMARK   80  A    between atoms: _179  and  _180
REMARK   81  A    between atoms: _185  and  _186
REMARK   82  A    between atoms: _188  and  _190
REMARK   83  A    between atoms: _190  and  _191
REMARK   84  A    between atoms: _190  and  _193
REMARK   85  A    between atoms: _195  and  _197
REMARK   86  A    between atoms: _197  and  _198
REMARK   87  A    between atoms: _197  and  _200
REMARK   88  A    between atoms: _200  and  _201
REMARK   89  A    between atoms: _204  and  _206
REMARK   90  A    between atoms: _206  and  _207
REMARK   91  A    between atoms: _206  and  _209
REMARK   92  A    between atoms: _209  and  _210
REMARK   93  A    between atoms: _213  and  _215
REMARK   94  A    between atoms: _215  and  _216
REMARK   95  A    between atoms: _215  and  _218
REMARK   96  A    between atoms: _218  and  _219
REMARK   97  A    between atoms: _219  and  _220
REMARK   98  A    between atoms: _220  and  _221
REMARK   99  A    between atoms: _221  and  _222
REMARK  100  A    between atoms: _226  and  _228
REMARK  101  A    between atoms: _228  and  _229
REMARK  102  A    between atoms: _228  and  _231
REMARK  103  A    between atoms: _231  and  _232
REMARK  104  A    between atoms: _232  and  _233
REMARK  105  A    between atoms: _233  and  _234
REMARK  106  A    between atoms: _234  and  _235
REMARK  107  A    between atoms: _239  and  _241
REMARK  108  A    between atoms: _241  and  _242
REMARK  109  A    between atoms: _241  and  _244
REMARK  110  A    between atoms: _244  and  _245
REMARK  111  A    between atoms: _245  and  _246
REMARK  112  A    between atoms: _246  and  _247
REMARK  113  A    between atoms: _256  and  _258
REMARK  114  A    between atoms: _258  and  _259
REMARK  115  A    between atoms: _258  and  _261
REMARK  116  A    between atoms: _261  and  _262
REMARK  117  A    between atoms: _265  and  _267
REMARK  118  A    between atoms: _267  and  _268
REMARK  119  A    between atoms: _271  and  _273
REMARK  120  A    between atoms: _273  and  _274
REMARK  121  A    between atoms: _273  and  _276
REMARK  122  A    between atoms: _276  and  _277
REMARK  123  A    between atoms: _277  and  _278
REMARK  124  A    between atoms: _283  and  _285
REMARK  125  A    between atoms: _285  and  _286
REMARK  126  A    between atoms: _285  and  _288
REMARK  127  A    between atoms: _288  and  _289
REMARK  128  A    between atoms: _289  and  _290
REMARK  129  A    between atoms: _293  and  _295
REMARK  130  A    between atoms: _295  and  _296
REMARK  131  A    between atoms: _298  and  _300
REMARK  132  A    between atoms: _300  and  _301
REMARK  133  A    between atoms: _300  and  _303
REMARK  134  A    between atoms: _305  and  _307
REMARK  135  A    between atoms: _307  and  _308
REMARK  136  A    between atoms: _307  and  _310
REMARK  137  A    between atoms: _310  and  _311
REMARK  138  A    between atoms: _314  and  _316
REMARK  139  A    between atoms: _316  and  _317
REMARK  140  A    between atoms: _316  and  _319
REMARK  141  A    between atoms: _322  and  _324
REMARK  142  A    between atoms: _324  and  _325
REMARK  143  A    between atoms: _328  and  _330
REMARK  144  A    between atoms: _330  and  _331
REMARK  145  A    between atoms: _330  and  _333
REMARK  146  A    between atoms: _333  and  _334
REMARK  147  A    between atoms: _336  and  _338
REMARK  148  A    between atoms: _338  and  _339
REMARK  149  A    between atoms: _338  and  _341
REMARK  150  A    between atoms: _341  and  _342
REMARK  151  A    between atoms: _345  and  _347
REMARK  152  A    between atoms: _347  and  _348
REMARK  153  A    between atoms: _347  and  _350
REMARK  154  A    between atoms: _350  and  _351
REMARK  155  A    between atoms: _356  and  _358
REMARK  156  A    between atoms: _358  and  _359
REMARK  157  A    between atoms: _358  and  _361
REMARK  158  A    between atoms: _361  and  _362
REMARK  159  A    between atoms: _362  and  _363
REMARK  160  A    between atoms: _363  and  _364
REMARK  161  A    between atoms: _373  and  _375
REMARK  162  A    between atoms: _375  and  _376
REMARK  163  A    between atoms: _378  and  _380
REMARK  164  A    between atoms: _380  and  _381
REMARK  165  A    between atoms: _380  and  _383
REMARK  166  A    between atoms: _386  and  _388
REMARK  167  A    between atoms: _388  and  _389
REMARK  168  A    between atoms: _388  and  _391
REMARK  169  A    between atoms: _391  and  _392
REMARK  170  A    between atoms: _395  and  _397
REMARK  171  A    between atoms: _397  and  _398
REMARK  172  A    between atoms: _397  and  _400
REMARK  173  A    between atoms: _400  and  _401
REMARK  174  A    between atoms: _401  and  _402
REMARK  175  A    between atoms: _402  and  _403
REMARK  176  A    between atoms: _403  and  _404
REMARK  177  A    between atoms: _408  and  _410
REMARK  178  A    between atoms: _410  and  _411
REMARK  179  A    between atoms: _410  and  _413
REMARK  180  A    between atoms: _413  and  _414
REMARK  181  A    between atoms: _414  and  _415
REMARK  182  A    between atoms: _415  and  _416
REMARK  183  A    between atoms: _416  and  _417
REMARK  184  A    between atoms: _421  and  _423
REMARK  185  A    between atoms: _423  and  _424
REMARK  186  A    between atoms: _423  and  _426
REMARK  187  A    between atoms: _426  and  _427
REMARK  188  A    between atoms: _432  and  _434
REMARK  189  A    between atoms: _434  and  _435
REMARK  190  A    between atoms: _434  and  _437
REMARK  191  A    between atoms: _437  and  _438
REMARK  192  A    between atoms: _443  and  _445
REMARK  193  A    between atoms: _445  and  _446
REMARK  194  A    between atoms: _449  and  _451
REMARK  195  A    between atoms: _451  and  _452
REMARK  196  A    between atoms: _451  and  _454
REMARK  197  A    between atoms: _454  and  _455
REMARK  198  A    between atoms: _460  and  _462
REMARK  199  A    between atoms: _462  and  _463
REMARK  200  A    between atoms: _466  and  _468
REMARK  201  A    between atoms: _468  and  _469
REMARK  202  A    between atoms: _472  and  _474
REMARK  203  A    between atoms: _474  and  _475
REMARK  204  A    between atoms: _474  and  _477
REMARK  205  A    between atoms: _477  and  _478
REMARK  206  A    between atoms: _483  and  _485
REMARK  207  A    between atoms: _485  and  _486
REMARK  208  A    between atoms: _485  and  _488
REMARK  209  A    between atoms: _488  and  _489
REMARK  210  A    between atoms: _492  and  _494
REMARK  211  A    between atoms: _494  and  _495
REMARK  212  A    between atoms: _497  and  _499
REMARK  213  A    between atoms: _499  and  _500
REMARK  214  A    between atoms: _499  and  _502
REMARK  215  A    between atoms: _502  and  _503
REMARK  216  A    between atoms: _503  and  _504
REMARK  217  A    between atoms: _507  and  _509
REMARK  218  A    between atoms: _509  and  _510
REMARK  219  A    between atoms: _509  and  _512
REMARK  220  A    between atoms: _512  and  _513
REMARK  221  A    between atoms: _516  and  _518
REMARK  222  A    between atoms: _518  and  _519
REMARK  223  A    between atoms: _518  and  _521
REMARK  224  A    between atoms: _521  and  _522
REMARK  225  A    between atoms: _524  and  _526
REMARK  226  A    between atoms: _526  and  _527
REMARK  227  A    between atoms: _526  and  _529
REMARK  228  A    between atoms: _529  and  _530
REMARK  229  A    between atoms: _533  and  _535
REMARK  230  A    between atoms: _535  and  _536
REMARK  231  A    between atoms: _535  and  _538
REMARK  232  A    between atoms: _538  and  _539
REMARK  233  A    between atoms: _539  and  _540
REMARK  234  A    between atoms: _542  and  _544
REMARK  235  A    between atoms: _544  and  _545
REMARK  236  A    between atoms: _548  and  _550
REMARK  237  A    between atoms: _550  and  _551
REMARK  238  A    between atoms: _554  and  _556
REMARK  239  A    between atoms: _556  and  _557
REMARK  240  A    between atoms: _556  and  _559
REMARK  241  A    between atoms: _559  and  _560
REMARK  242  A    between atoms: _563  and  _565
REMARK  243  A    between atoms: _565  and  _566
REMARK  244  A    between atoms: _569  and  _571
REMARK  245  A    between atoms: _571  and  _572
REMARK                            x       y       z     vdW  Elec       q    Type
REMARK                         _______ _______ _______ _____ _____    ______ ____
ROOT
ATOM      1  O   HOH     1      79.538  19.452 -10.833  0.00  0.00    +0.000 OA
ENDROOT
TORSDOF 0
REMARK  Name = ../refined-set-2016/3ccz/3ccz_pocket.pdb
REMARK  245 active torsions:
REMARK  status: ('A' for Active; 'I' for Inactive)
REMARK    1  A    between atoms: _1  and  _3
REMARK    2  A    between atoms: _3  and  _4
REMARK    3  A    between atoms: _3  and  _6
REMARK    4  A    between atoms: _6  and  _7
REMARK    5  A    between atoms: _7  and  _8
REMARK    6  A    between atoms: _11  and  _13
REMARK    7  A    between atoms: _13  and  _14
REMARK    8  A    between atoms: _13  and  _16
REMARK    9  A    between atoms: _16  and  _17
REMARK   10  A    between atoms: _20  and  _22
REMARK   11  A    between atoms: _22  and  _23
REMARK   12  A    between atoms: _22  and  _25
REMARK   13  A    between atoms: _25  and  _26
REMARK   14  A    between atoms: _26  and  _27
REMARK   15  A    between atoms: _27  and  _28
REMARK   16  A    between atoms: _37  and  _39
REMARK   17  A    between atoms: _39  and  _40
REMARK   18  A    between atoms: _43  and  _44
REMARK   19  A    between atoms: _49  and  _51
REMARK   20  A    between atoms: _51  and  _52
REMARK   21  A    between atoms: _51  and  _54
REMARK   22  A    between atoms: _54  and  _55
REMARK   23  A    between atoms: _55  and  _56
REMARK   24  A    between atoms: _58  and  _60
REMARK   25  A    between atoms: _60  and  _61
REMARK   26  A    between atoms: _60  and  _63
REMARK   27  A    between atoms: _63  and  _64
REMARK   28  A    between atoms: _64  and  _65
REMARK   29  A    between atoms: _67  and  _69
REMARK   30  A    between atoms: _69  and  _70
REMARK   31  A    between atoms: _69  and  _72
REMARK   32  A    between atoms: _72  and  _73
REMARK   33  A    between atoms: _78  and  _80
REMARK   34  A    between atoms: _80  and  _81
REMARK   35  A    between atoms: _80  and  _83
REMARK   36  A    between atoms: _83  and  _84
REMARK   37  A    between atoms: _84  and  _85
REMARK   38  A    between atoms: _87  and  _89
REMARK   39  A    between atoms: _89  and  _90
REMARK   40  A    between atoms: _89  and  _92
REMARK   41  A    between atoms: _92  and  _93
REMARK   42  A    between atoms: _96  and  _98
REMARK   43  A    between atoms: _98  and  _99
REMARK   44  A    between atoms: _98  and  _101
REMARK   45  A    between atoms: _101  and  _102
REMARK   46  A    between atoms: _104  and  _106
REMARK   47  A    between atoms: _106  and  _107
REMARK   48  A    between atoms: _106  and  _109
REMARK   49  A    between atoms: _109  and  _110
REMARK   50  A    between atoms: _110  and  _111
REMARK   51  A    between atoms: _111  and  _112
REMARK   52  A    between atoms: _112  and  _113
REMARK   53  A    between atoms: _117  and  _119
REMARK   54  A    between atoms: _119  and  _120
REMARK   55  A    between atoms: _119  and  _122
REMARK   56  A    between atoms: _122  and  _123
REMARK   57  A    between atoms: _126  and  _128
REMARK   58  A    between atoms: _128  and  _129
REMARK   59  A    between atoms: _128  and  _131
REMARK   60  A    between atoms: _131  and  _132
REMARK   61  A    between atoms: _132  and  _133
REMARK   62  A    between atoms: _136  and  _138
REMARK   63  A    between atoms: _138  and  _139
REMARK   64  A    between atoms: _142  and  _144
REMARK   65  A    between atoms: _144  and  _145
REMARK   66  A    between atoms: _144  and  _147
REMARK   67  A    between atoms: _150  and  _152
REMARK   68  A    between atoms: _152  and  _153
REMARK   69  A    between atoms: _152  and  _155
REMARK   70  A    between atoms: _155  and  _156
REMARK   71  A    between atoms: _158  and  _160
REMARK   72  A    between atoms: _160  and  _161
REMARK   73  A    between atoms: _163  and  _165
REMARK   74  A    between atoms: _165  and  _166
REMARK   75  A    between atoms: _165  and  _168
REMARK   76  A    between atoms: _168  and  _169
REMARK   77  A    between atoms: _174  and  _176
REMARK   78  A    between atoms: _176  and  _177
REMARK   79  A    between atoms: _176  and  _179
REMARK   80  A    between atoms: _179  and  _180
REMARK   81  A    between atoms: _185  and  _186
REMARK   82  A    between atoms: _188  and  _190
REMARK   83  A    between atoms: _190  and  _191
REMARK   84  A    between atoms: _190  and  _193
REMARK   85  A    between atoms: _195  and  _197
REMARK   86  A    between atoms: _197  and  _198
REMARK   87  A    between atoms: _197  and  _200
REMARK   88  A    between atoms: _200  and  _201
REMARK   89  A    between atoms: _204  and  _206
REMARK   90  A    between atoms: _206  and  _207
REMARK   91  A    between atoms: _206  and  _209
REMARK   92  A    between atoms: _209  and  _210
REMARK   93  A    between atoms: _213  and  _215
REMARK   94  A    between atoms: _215  and  _216
REMARK   95  A    between atoms: _215  and  _218
REMARK   96  A    between atoms: _218  and  _219
REMARK   97  A    between atoms: _219  and  _220
REMARK   98  A    between atoms: _220  and  _221
REMARK   99  A    between atoms: _221  and  _222
REMARK  100  A    between atoms: _226  and  _228
REMARK  101  A    between atoms: _228  and  _229
REMARK  102  A    between atoms: _228  and  _231
REMARK  103  A    between atoms: _231  and  _232
REMARK  104  A    between atoms: _232  and  _233
REMARK  105  A    between atoms: _233  and  _234
REMARK  106  A    between atoms: _234  and  _235
REMARK  107  A    between atoms: _239  and  _241
REMARK  108  A    between atoms: _241  and  _242
REMARK  109  A    between atoms: _241  and  _244
REMARK  110  A    between atoms: _244  and  _245
REMARK  111  A    between atoms: _245  and  _246
REMARK  112  A    between atoms: _246  and  _247
REMARK  113  A    between atoms: _256  and  _258
REMARK  114  A    between atoms: _258  and  _259
REMARK  115  A    between atoms: _258  and  _261
REMARK  116  A    between atoms: _261  and  _262
REMARK  117  A    between atoms: _265  and  _267
REMARK  118  A    between atoms: _267  and  _268
REMARK  119  A    between atoms: _271  and  _273
REMARK  120  A    between atoms: _273  and  _274
REMARK  121  A    between atoms: _273  and  _276
REMARK  122  A    between atoms: _276  and  _277
REMARK  123  A    between atoms: _277  and  _278
REMARK  124  A    between atoms: _283  and  _285
REMARK  125  A    between atoms: _285  and  _286
REMARK  126  A    between atoms: _285  and  _288
REMARK  127  A    between atoms: _288  and  _289
REMARK  128  A    between atoms: _289  and  _290
REMARK  129  A    between atoms: _293  and  _295
REMARK  130  A    between atoms: _295  and  _296
REMARK  131  A    between atoms: _298  and  _300
REMARK  132  A    between atoms: _300  and  _301
REMARK  133  A    between atoms: _300  and  _303
REMARK  134  A    between atoms: _305  and  _307
REMARK  135  A    between atoms: _307  and  _308
REMARK  136  A    between atoms: _307  and  _310
REMARK  137  A    between atoms: _310  and  _311
REMARK  138  A    between atoms: _314  and  _316
REMARK  139  A    between atoms: _316  and  _317
REMARK  140  A    between atoms: _316  and  _319
REMARK  141  A    between atoms: _322  and  _324
REMARK  142  A    between atoms: _324  and  _325
REMARK  143  A    between atoms: _328  and  _330
REMARK  144  A    between atoms: _330  and  _331
REMARK  145  A    between atoms: _330  and  _333
REMARK  146  A    between atoms: _333  and  _334
REMARK  147  A    between atoms: _336  and  _338
REMARK  148  A    between atoms: _338  and  _339
REMARK  149  A    between atoms: _338  and  _341
REMARK  150  A    between atoms: _341  and  _342
REMARK  151  A    between atoms: _345  and  _347
REMARK  152  A    between atoms: _347  and  _348
REMARK  153  A    between atoms: _347  and  _350
REMARK  154  A    between atoms: _350  and  _351
REMARK  155  A    between atoms: _356  and  _358
REMARK  156  A    between atoms: _358  and  _359
REMARK  157  A    between atoms: _358  and  _361
REMARK  158  A    between atoms: _361  and  _362
REMARK  159  A    between atoms: _362  and  _363
REMARK  160  A    between atoms: _363  and  _364
REMARK  161  A    between atoms: _373  and  _375
REMARK  162  A    between atoms: _375  and  _376
REMARK  163  A    between atoms: _378  and  _380
REMARK  164  A    between atoms: _380  and  _381
REMARK  165  A    between atoms: _380  and  _383
REMARK  166  A    between atoms: _386  and  _388
REMARK  167  A    between atoms: _388  and  _389
REMARK  168  A    between atoms: _388  and  _391
REMARK  169  A    between atoms: _391  and  _392
REMARK  170  A    between atoms: _395  and  _397
REMARK  171  A    between atoms: _397  and  _398
REMARK  172  A    between atoms: _397  and  _400
REMARK  173  A    between atoms: _400  and  _401
REMARK  174  A    between atoms: _401  and  _402
REMARK  175  A    between atoms: _402  and  _403
REMARK  176  A    between atoms: _403  and  _404
REMARK  177  A    between atoms: _408  and  _410
REMARK  178  A    between atoms: _410  and  _411
REMARK  179  A    between atoms: _410  and  _413
REMARK  180  A    between atoms: _413  and  _414
REMARK  181  A    between atoms: _414  and  _415
REMARK  182  A    between atoms: _415  and  _416
REMARK  183  A    between atoms: _416  and  _417
REMARK  184  A    between atoms: _421  and  _423
REMARK  185  A    between atoms: _423  and  _424
REMARK  186  A    between atoms: _423  and  _426
REMARK  187  A    between atoms: _426  and  _427
REMARK  188  A    between atoms: _432  and  _434
REMARK  189  A    between atoms: _434  and  _435
REMARK  190  A    between atoms: _434  and  _437
REMARK  191  A    between atoms: _437  and  _438
REMARK  192  A    between atoms: _443  and  _445
REMARK  193  A    between atoms: _445  and  _446
REMARK  194  A    between atoms: _449  and  _451
REMARK  195  A    between atoms: _451  and  _452
REMARK  196  A    between atoms: _451  and  _454
REMARK  197  A    between atoms: _454  and  _455
REMARK  198  A    between atoms: _460  and  _462
REMARK  199  A    between atoms: _462  and  _463
REMARK  200  A    between atoms: _466  and  _468
REMARK  201  A    between atoms: _468  and  _469
REMARK  202  A    between atoms: _472  and  _474
REMARK  203  A    between atoms: _474  and  _475
REMARK  204  A    between atoms: _474  and  _477
REMARK  205  A    between atoms: _477  and  _478
REMARK  206  A    between atoms: _483  and  _485
REMARK  207  A    between atoms: _485  and  _486
REMARK  208  A    between atoms: _485  and  _488
REMARK  209  A    between atoms: _488  and  _489
REMARK  210  A    between atoms: _492  and  _494
REMARK  211  A    between atoms: _494  and  _495
REMARK  212  A    between atoms: _497  and  _499
REMARK  213  A    between atoms: _499  and  _500
REMARK  214  A    between atoms: _499  and  _502
REMARK  215  A    between atoms: _502  and  _503
REMARK  216  A    between atoms: _503  and  _504
REMARK  217  A    between atoms: _507  and  _509
REMARK  218  A    between atoms: _509  and  _510
REMARK  219  A    between atoms: _509  and  _512
REMARK  220  A    between atoms: _512  and  _513
REMARK  221  A    between atoms: _516  and  _518
REMARK  222  A    between atoms: _518  and  _519
REMARK  223  A    between atoms: _518  and  _521
REMARK  224  A    between atoms: _521  and  _522
REMARK  225  A    between atoms: _524  and  _526
REMARK  226  A    between atoms: _526  and  _527
REMARK  227  A    between atoms: _526  and  _529
REMARK  228  A    between atoms: _529  and  _530
REMARK  229  A    between atoms: _533  and  _535
REMARK  230  A    between atoms: _535  and  _536
REMARK  231  A    between atoms: _535  and  _538
REMARK  232  A    between atoms: _538  and  _539
REMARK  233  A    between atoms: _539  and  _540
REMARK  234  A    between atoms: _542  and  _544
REMARK  235  A    between atoms: _544  and  _545
REMARK  236  A    between atoms: _548  and  _550
REMARK  237  A    between atoms: _550  and  _551
REMARK  238  A    between atoms: _554  and  _556
REMARK  239  A    between atoms: _556  and  _557
REMARK  240  A    between atoms: _556  and  _559
REMARK  241  A    between atoms: _559  and  _560
REMARK  242  A    between atoms: _563  and  _565
REMARK  243  A    between atoms: _565  and  _566
REMARK  244  A    between atoms: _569  and  _571
REMARK  245  A    between atoms: _571  and  _572
REMARK                            x       y       z     vdW  Elec       q    Type
REMARK                         _______ _______ _______ _____ _____    ______ ____
ROOT
ATOM      1  O   HOH     1      73.087  14.149  -8.628  0.00  0.00    +0.000 OA
ENDROOT
TORSDOF 0
REMARK  Name = ../refined-set-2016/3ccz/3ccz_pocket.pdb
REMARK  245 active torsions:
REMARK  status: ('A' for Active; 'I' for Inactive)
REMARK    1  A    between atoms: _1  and  _3
REMARK    2  A    between atoms: _3  and  _4
REMARK    3  A    between atoms: _3  and  _6
REMARK    4  A    between atoms: _6  and  _7
REMARK    5  A    between atoms: _7  and  _8
REMARK    6  A    between atoms: _11  and  _13
REMARK    7  A    between atoms: _13  and  _14
REMARK    8  A    between atoms: _13  and  _16
REMARK    9  A    between atoms: _16  and  _17
REMARK   10  A    between atoms: _20  and  _22
REMARK   11  A    between atoms: _22  and  _23
REMARK   12  A    between atoms: _22  and  _25
REMARK   13  A    between atoms: _25  and  _26
REMARK   14  A    between atoms: _26  and  _27
REMARK   15  A    between atoms: _27  and  _28
REMARK   16  A    between atoms: _37  and  _39
REMARK   17  A    between atoms: _39  and  _40
REMARK   18  A    between atoms: _43  and  _44
REMARK   19  A    between atoms: _49  and  _51
REMARK   20  A    between atoms: _51  and  _52
REMARK   21  A    between atoms: _51  and  _54
REMARK   22  A    between atoms: _54  and  _55
REMARK   23  A    between atoms: _55  and  _56
REMARK   24  A    between atoms: _58  and  _60
REMARK   25  A    between atoms: _60  and  _61
REMARK   26  A    between atoms: _60  and  _63
REMARK   27  A    between atoms: _63  and  _64
REMARK   28  A    between atoms: _64  and  _65
REMARK   29  A    between atoms: _67  and  _69
REMARK   30  A    between atoms: _69  and  _70
REMARK   31  A    between atoms: _69  and  _72
REMARK   32  A    between atoms: _72  and  _73
REMARK   33  A    between atoms: _78  and  _80
REMARK   34  A    between atoms: _80  and  _81
REMARK   35  A    between atoms: _80  and  _83
REMARK   36  A    between atoms: _83  and  _84
REMARK   37  A    between atoms: _84  and  _85
REMARK   38  A    between atoms: _87  and  _89
REMARK   39  A    between atoms: _89  and  _90
REMARK   40  A    between atoms: _89  and  _92
REMARK   41  A    between atoms: _92  and  _93
REMARK   42  A    between atoms: _96  and  _98
REMARK   43  A    between atoms: _98  and  _99
REMARK   44  A    between atoms: _98  and  _101
REMARK   45  A    between atoms: _101  and  _102
REMARK   46  A    between atoms: _104  and  _106
REMARK   47  A    between atoms: _106  and  _107
REMARK   48  A    between atoms: _106  and  _109
REMARK   49  A    between atoms: _109  and  _110
REMARK   50  A    between atoms: _110  and  _111
REMARK   51  A    between atoms: _111  and  _112
REMARK   52  A    between atoms: _112  and  _113
REMARK   53  A    between atoms: _117  and  _119
REMARK   54  A    between atoms: _119  and  _120
REMARK   55  A    between atoms: _119  and  _122
REMARK   56  A    between atoms: _122  and  _123
REMARK   57  A    between atoms: _126  and  _128
REMARK   58  A    between atoms: _128  and  _129
REMARK   59  A    between atoms: _128  and  _131
REMARK   60  A    between atoms: _131  and  _132
REMARK   61  A    between atoms: _132  and  _133
REMARK   62  A    between atoms: _136  and  _138
REMARK   63  A    between atoms: _138  and  _139
REMARK   64  A    between atoms: _142  and  _144
REMARK   65  A    between atoms: _144  and  _145
REMARK   66  A    between atoms: _144  and  _147
REMARK   67  A    between atoms: _150  and  _152
REMARK   68  A    between atoms: _152  and  _153
REMARK   69  A    between atoms: _152  and  _155
REMARK   70  A    between atoms: _155  and  _156
REMARK   71  A    between atoms: _158  and  _160
REMARK   72  A    between atoms: _160  and  _161
REMARK   73  A    between atoms: _163  and  _165
REMARK   74  A    between atoms: _165  and  _166
REMARK   75  A    between atoms: _165  and  _168
REMARK   76  A    between atoms: _168  and  _169
REMARK   77  A    between atoms: _174  and  _176
REMARK   78  A    between atoms: _176  and  _177
REMARK   79  A    between atoms: _176  and  _179
REMARK   80  A    between atoms: _179  and  _180
REMARK   81  A    between atoms: _185  and  _186
REMARK   82  A    between atoms: _188  and  _190
REMARK   83  A    between atoms: _190  and  _191
REMARK   84  A    between atoms: _190  and  _193
REMARK   85  A    between atoms: _195  and  _197
REMARK   86  A    between atoms: _197  and  _198
REMARK   87  A    between atoms: _197  and  _200
REMARK   88  A    between atoms: _200  and  _201
REMARK   89  A    between atoms: _204  and  _206
REMARK   90  A    between atoms: _206  and  _207
REMARK   91  A    between atoms: _206  and  _209
REMARK   92  A    between atoms: _209  and  _210
REMARK   93  A    between atoms: _213  and  _215
REMARK   94  A    between atoms: _215  and  _216
REMARK   95  A    between atoms: _215  and  _218
REMARK   96  A    between atoms: _218  and  _219
REMARK   97  A    between atoms: _219  and  _220
REMARK   98  A    between atoms: _220  and  _221
REMARK   99  A    between atoms: _221  and  _222
REMARK  100  A    between atoms: _226  and  _228
REMARK  101  A    between atoms: _228  and  _229
REMARK  102  A    between atoms: _228  and  _231
REMARK  103  A    between atoms: _231  and  _232
REMARK  104  A    between atoms: _232  and  _233
REMARK  105  A    between atoms: _233  and  _234
REMARK  106  A    between atoms: _234  and  _235
REMARK  107  A    between atoms: _239  and  _241
REMARK  108  A    between atoms: _241  and  _242
REMARK  109  A    between atoms: _241  and  _244
REMARK  110  A    between atoms: _244  and  _245
REMARK  111  A    between atoms: _245  and  _246
REMARK  112  A    between atoms: _246  and  _247
REMARK  113  A    between atoms: _256  and  _258
REMARK  114  A    between atoms: _258  and  _259
REMARK  115  A    between atoms: _258  and  _261
REMARK  116  A    between atoms: _261  and  _262
REMARK  117  A    between atoms: _265  and  _267
REMARK  118  A    between atoms: _267  and  _268
REMARK  119  A    between atoms: _271  and  _273
REMARK  120  A    between atoms: _273  and  _274
REMARK  121  A    between atoms: _273  and  _276
REMARK  122  A    between atoms: _276  and  _277
REMARK  123  A    between atoms: _277  and  _278
REMARK  124  A    between atoms: _283  and  _285
REMARK  125  A    between atoms: _285  and  _286
REMARK  126  A    between atoms: _285  and  _288
REMARK  127  A    between atoms: _288  and  _289
REMARK  128  A    between atoms: _289  and  _290
REMARK  129  A    between atoms: _293  and  _295
REMARK  130  A    between atoms: _295  and  _296
REMARK  131  A    between atoms: _298  and  _300
REMARK  132  A    between atoms: _300  and  _301
REMARK  133  A    between atoms: _300  and  _303
REMARK  134  A    between atoms: _305  and  _307
REMARK  135  A    between atoms: _307  and  _308
REMARK  136  A    between atoms: _307  and  _310
REMARK  137  A    between atoms: _310  and  _311
REMARK  138  A    between atoms: _314  and  _316
REMARK  139  A    between atoms: _316  and  _317
REMARK  140  A    between atoms: _316  and  _319
REMARK  141  A    between atoms: _322  and  _324
REMARK  142  A    between atoms: _324  and  _325
REMARK  143  A    between atoms: _328  and  _330
REMARK  144  A    between atoms: _330  and  _331
REMARK  145  A    between atoms: _330  and  _333
REMARK  146  A    between atoms: _333  and  _334
REMARK  147  A    between atoms: _336  and  _338
REMARK  148  A    between atoms: _338  and  _339
REMARK  149  A    between atoms: _338  and  _341
REMARK  150  A    between atoms: _341  and  _342
REMARK  151  A    between atoms: _345  and  _347
REMARK  152  A    between atoms: _347  and  _348
REMARK  153  A    between atoms: _347  and  _350
REMARK  154  A    between atoms: _350  and  _351
REMARK  155  A    between atoms: _356  and  _358
REMARK  156  A    between atoms: _358  and  _359
REMARK  157  A    between atoms: _358  and  _361
REMARK  158  A    between atoms: _361  and  _362
REMARK  159  A    between atoms: _362  and  _363
REMARK  160  A    between atoms: _363  and  _364
REMARK  161  A    between atoms: _373  and  _375
REMARK  162  A    between atoms: _375  and  _376
REMARK  163  A    between atoms: _378  and  _380
REMARK  164  A    between atoms: _380  and  _381
REMARK  165  A    between atoms: _380  and  _383
REMARK  166  A    between atoms: _386  and  _388
REMARK  167  A    between atoms: _388  and  _389
REMARK  168  A    between atoms: _388  and  _391
REMARK  169  A    between atoms: _391  and  _392
REMARK  170  A    between atoms: _395  and  _397
REMARK  171  A    between atoms: _397  and  _398
REMARK  172  A    between atoms: _397  and  _400
REMARK  173  A    between atoms: _400  and  _401
REMARK  174  A    between atoms: _401  and  _402
REMARK  175  A    between atoms: _402  and  _403
REMARK  176  A    between atoms: _403  and  _404
REMARK  177  A    between atoms: _408  and  _410
REMARK  178  A    between atoms: _410  and  _411
REMARK  179  A    between atoms: _410  and  _413
REMARK  180  A    between atoms: _413  and  _414
REMARK  181  A    between atoms: _414  and  _415
REMARK  182  A    between atoms: _415  and  _416
REMARK  183  A    between atoms: _416  and  _417
REMARK  184  A    between atoms: _421  and  _423
REMARK  185  A    between atoms: _423  and  _424
REMARK  186  A    between atoms: _423  and  _426
REMARK  187  A    between atoms: _426  and  _427
REMARK  188  A    between atoms: _432  and  _434
REMARK  189  A    between atoms: _434  and  _435
REMARK  190  A    between atoms: _434  and  _437
REMARK  191  A    between atoms: _437  and  _438
REMARK  192  A    between atoms: _443  and  _445
REMARK  193  A    between atoms: _445  and  _446
REMARK  194  A    between atoms: _449  and  _451
REMARK  195  A    between atoms: _451  and  _452
REMARK  196  A    between atoms: _451  and  _454
REMARK  197  A    between atoms: _454  and  _455
REMARK  198  A    between atoms: _460  and  _462
REMARK  199  A    between atoms: _462  and  _463
REMARK  200  A    between atoms: _466  and  _468
REMARK  201  A    between atoms: _468  and  _469
REMARK  202  A    between atoms: _472  and  _474
REMARK  203  A    between atoms: _474  and  _475
REMARK  204  A    between atoms: _474  and  _477
REMARK  205  A    between atoms: _477  and  _478
REMARK  206  A    between atoms: _483  and  _485
REMARK  207  A    between atoms: _485  and  _486
REMARK  208  A    between atoms: _485  and  _488
REMARK  209  A    between atoms: _488  and  _489
REMARK  210  A    between atoms: _492  and  _494
REMARK  211  A    between atoms: _494  and  _495
REMARK  212  A    between atoms: _497  and  _499
REMARK  213  A    between atoms: _499  and  _500
REMARK  214  A    between atoms: _499  and  _502
REMARK  215  A    between atoms: _502  and  _503
REMARK  216  A    between atoms: _503  and  _504
REMARK  217  A    between atoms: _507  and  _509
REMARK  218  A    between atoms: _509  and  _510
REMARK  219  A    between atoms: _509  and  _512
REMARK  220  A    between atoms: _512  and  _513
REMARK  221  A    between atoms: _516  and  _518
REMARK  222  A    between atoms: _518  and  _519
REMARK  223  A    between atoms: _518  and  _521
REMARK  224  A    between atoms: _521  and  _522
REMARK  225  A    between atoms: _524  and  _526
REMARK  226  A    between atoms: _526  and  _527
REMARK  227  A    between atoms: _526  and  _529
REMARK  228  A    between atoms: _529  and  _530
REMARK  229  A    between atoms: _533  and  _535
REMARK  230  A    between atoms: _535  and  _536
REMARK  231  A    between atoms: _535  and  _538
REMARK  232  A    between atoms: _538  and  _539
REMARK  233  A    between atoms: _539  and  _540
REMARK  234  A    between atoms: _542  and  _544
REMARK  235  A    between atoms: _544  and  _545
REMARK  236  A    between atoms: _548  and  _550
REMARK  237  A    between atoms: _550  and  _551
REMARK  238  A    between atoms: _554  and  _556
REMARK  239  A    between atoms: _556  and  _557
REMARK  240  A    between atoms: _556  and  _559
REMARK  241  A    between atoms: _559  and  _560
REMARK  242  A    between atoms: _563  and  _565
REMARK  243  A    between atoms: _565  and  _566
REMARK  244  A    between atoms: _569  and  _571
REMARK  245  A    between atoms: _571  and  _572
REMARK                            x       y       z     vdW  Elec       q    Type
REMARK                         _______ _______ _______ _____ _____    ______ ____
ROOT
ATOM      1  O   HOH     1      81.019  22.025  -9.734  0.00  0.00    +0.000 OA
ENDROOT
TORSDOF 0
REMARK  Name = ../refined-set-2016/3ccz/3ccz_pocket.pdb
REMARK  245 active torsions:
REMARK  status: ('A' for Active; 'I' for Inactive)
REMARK    1  A    between atoms: _1  and  _3
REMARK    2  A    between atoms: _3  and  _4
REMARK    3  A    between atoms: _3  and  _6
REMARK    4  A    between atoms: _6  and  _7
REMARK    5  A    between atoms: _7  and  _8
REMARK    6  A    between atoms: _11  and  _13
REMARK    7  A    between atoms: _13  and  _14
REMARK    8  A    between atoms: _13  and  _16
REMARK    9  A    between atoms: _16  and  _17
REMARK   10  A    between atoms: _20  and  _22
REMARK   11  A    between atoms: _22  and  _23
REMARK   12  A    between atoms: _22  and  _25
REMARK   13  A    between atoms: _25  and  _26
REMARK   14  A    between atoms: _26  and  _27
REMARK   15  A    between atoms: _27  and  _28
REMARK   16  A    between atoms: _37  and  _39
REMARK   17  A    between atoms: _39  and  _40
REMARK   18  A    between atoms: _43  and  _44
REMARK   19  A    between atoms: _49  and  _51
REMARK   20  A    between atoms: _51  and  _52
REMARK   21  A    between atoms: _51  and  _54
REMARK   22  A    between atoms: _54  and  _55
REMARK   23  A    between atoms: _55  and  _56
REMARK   24  A    between atoms: _58  and  _60
REMARK   25  A    between atoms: _60  and  _61
REMARK   26  A    between atoms: _60  and  _63
REMARK   27  A    between atoms: _63  and  _64
REMARK   28  A    between atoms: _64  and  _65
REMARK   29  A    between atoms: _67  and  _69
REMARK   30  A    between atoms: _69  and  _70
REMARK   31  A    between atoms: _69  and  _72
REMARK   32  A    between atoms: _72  and  _73
REMARK   33  A    between atoms: _78  and  _80
REMARK   34  A    between atoms: _80  and  _81
REMARK   35  A    between atoms: _80  and  _83
REMARK   36  A    between atoms: _83  and  _84
REMARK   37  A    between atoms: _84  and  _85
REMARK   38  A    between atoms: _87  and  _89
REMARK   39  A    between atoms: _89  and  _90
REMARK   40  A    between atoms: _89  and  _92
REMARK   41  A    between atoms: _92  and  _93
REMARK   42  A    between atoms: _96  and  _98
REMARK   43  A    between atoms: _98  and  _99
REMARK   44  A    between atoms: _98  and  _101
REMARK   45  A    between atoms: _101  and  _102
REMARK   46  A    between atoms: _104  and  _106
REMARK   47  A    between atoms: _106  and  _107
REMARK   48  A    between atoms: _106  and  _109
REMARK   49  A    between atoms: _109  and  _110
REMARK   50  A    between atoms: _110  and  _111
REMARK   51  A    between atoms: _111  and  _112
REMARK   52  A    between atoms: _112  and  _113
REMARK   53  A    between atoms: _117  and  _119
REMARK   54  A    between atoms: _119  and  _120
REMARK   55  A    between atoms: _119  and  _122
REMARK   56  A    between atoms: _122  and  _123
REMARK   57  A    between atoms: _126  and  _128
REMARK   58  A    between atoms: _128  and  _129
REMARK   59  A    between atoms: _128  and  _131
REMARK   60  A    between atoms: _131  and  _132
REMARK   61  A    between atoms: _132  and  _133
REMARK   62  A    between atoms: _136  and  _138
REMARK   63  A    between atoms: _138  and  _139
REMARK   64  A    between atoms: _142  and  _144
REMARK   65  A    between atoms: _144  and  _145
REMARK   66  A    between atoms: _144  and  _147
REMARK   67  A    between atoms: _150  and  _152
REMARK   68  A    between atoms: _152  and  _153
REMARK   69  A    between atoms: _152  and  _155
REMARK   70  A    between atoms: _155  and  _156
REMARK   71  A    between atoms: _158  and  _160
REMARK   72  A    between atoms: _160  and  _161
REMARK   73  A    between atoms: _163  and  _165
REMARK   74  A    between atoms: _165  and  _166
REMARK   75  A    between atoms: _165  and  _168
REMARK   76  A    between atoms: _168  and  _169
REMARK   77  A    between atoms: _174  and  _176
REMARK   78  A    between atoms: _176  and  _177
REMARK   79  A    between atoms: _176  and  _179
REMARK   80  A    between atoms: _179  and  _180
REMARK   81  A    between atoms: _185  and  _186
REMARK   82  A    between atoms: _188  and  _190
REMARK   83  A    between atoms: _190  and  _191
REMARK   84  A    between atoms: _190  and  _193
REMARK   85  A    between atoms: _195  and  _197
REMARK   86  A    between atoms: _197  and  _198
REMARK   87  A    between atoms: _197  and  _200
REMARK   88  A    between atoms: _200  and  _201
REMARK   89  A    between atoms: _204  and  _206
REMARK   90  A    between atoms: _206  and  _207
REMARK   91  A    between atoms: _206  and  _209
REMARK   92  A    between atoms: _209  and  _210
REMARK   93  A    between atoms: _213  and  _215
REMARK   94  A    between atoms: _215  and  _216
REMARK   95  A    between atoms: _215  and  _218
REMARK   96  A    between atoms: _218  and  _219
REMARK   97  A    between atoms: _219  and  _220
REMARK   98  A    between atoms: _220  and  _221
REMARK   99  A    between atoms: _221  and  _222
REMARK  100  A    between atoms: _226  and  _228
REMARK  101  A    between atoms: _228  and  _229
REMARK  102  A    between atoms: _228  and  _231
REMARK  103  A    between atoms: _231  and  _232
REMARK  104  A    between atoms: _232  and  _233
REMARK  105  A    between atoms: _233  and  _234
REMARK  106  A    between atoms: _234  and  _235
REMARK  107  A    between atoms: _239  and  _241
REMARK  108  A    between atoms: _241  and  _242
REMARK  109  A    between atoms: _241  and  _244
REMARK  110  A    between atoms: _244  and  _245
REMARK  111  A    between atoms: _245  and  _246
REMARK  112  A    between atoms: _246  and  _247
REMARK  113  A    between atoms: _256  and  _258
REMARK  114  A    between atoms: _258  and  _259
REMARK  115  A    between atoms: _258  and  _261
REMARK  116  A    between atoms: _261  and  _262
REMARK  117  A    between atoms: _265  and  _267
REMARK  118  A    between atoms: _267  and  _268
REMARK  119  A    between atoms: _271  and  _273
REMARK  120  A    between atoms: _273  and  _274
REMARK  121  A    between atoms: _273  and  _276
REMARK  122  A    between atoms: _276  and  _277
REMARK  123  A    between atoms: _277  and  _278
REMARK  124  A    between atoms: _283  and  _285
REMARK  125  A    between atoms: _285  and  _286
REMARK  126  A    between atoms: _285  and  _288
REMARK  127  A    between atoms: _288  and  _289
REMARK  128  A    between atoms: _289  and  _290
REMARK  129  A    between atoms: _293  and  _295
REMARK  130  A    between atoms: _295  and  _296
REMARK  131  A    between atoms: _298  and  _300
REMARK  132  A    between atoms: _300  and  _301
REMARK  133  A    between atoms: _300  and  _303
REMARK  134  A    between atoms: _305  and  _307
REMARK  135  A    between atoms: _307  and  _308
REMARK  136  A    between atoms: _307  and  _310
REMARK  137  A    between atoms: _310  and  _311
REMARK  138  A    between atoms: _314  and  _316
REMARK  139  A    between atoms: _316  and  _317
REMARK  140  A    between atoms: _316  and  _319
REMARK  141  A    between atoms: _322  and  _324
REMARK  142  A    between atoms: _324  and  _325
REMARK  143  A    between atoms: _328  and  _330
REMARK  144  A    between atoms: _330  and  _331
REMARK  145  A    between atoms: _330  and  _333
REMARK  146  A    between atoms: _333  and  _334
REMARK  147  A    between atoms: _336  and  _338
REMARK  148  A    between atoms: _338  and  _339
REMARK  149  A    between atoms: _338  and  _341
REMARK  150  A    between atoms: _341  and  _342
REMARK  151  A    between atoms: _345  and  _347
REMARK  152  A    between atoms: _347  and  _348
REMARK  153  A    between atoms: _347  and  _350
REMARK  154  A    between atoms: _350  and  _351
REMARK  155  A    between atoms: _356  and  _358
REMARK  156  A    between atoms: _358  and  _359
REMARK  157  A    between atoms: _358  and  _361
REMARK  158  A    between atoms: _361  and  _362
REMARK  159  A    between atoms: _362  and  _363
REMARK  160  A    between atoms: _363  and  _364
REMARK  161  A    between atoms: _373  and  _375
REMARK  162  A    between atoms: _375  and  _376
REMARK  163  A    between atoms: _378  and  _380
REMARK  164  A    between atoms: _380  and  _381
REMARK  165  A    between atoms: _380  and  _383
REMARK  166  A    between atoms: _386  and  _388
REMARK  167  A    between atoms: _388  and  _389
REMARK  168  A    between atoms: _388  and  _391
REMARK  169  A    between atoms: _391  and  _392
REMARK  170  A    between atoms: _395  and  _397
REMARK  171  A    between atoms: _397  and  _398
REMARK  172  A    between atoms: _397  and  _400
REMARK  173  A    between atoms: _400  and  _401
REMARK  174  A    between atoms: _401  and  _402
REMARK  175  A    between atoms: _402  and  _403
REMARK  176  A    between atoms: _403  and  _404
REMARK  177  A    between atoms: _408  and  _410
REMARK  178  A    between atoms: _410  and  _411
REMARK  179  A    between atoms: _410  and  _413
REMARK  180  A    between atoms: _413  and  _414
REMARK  181  A    between atoms: _414  and  _415
REMARK  182  A    between atoms: _415  and  _416
REMARK  183  A    between atoms: _416  and  _417
REMARK  184  A    between atoms: _421  and  _423
REMARK  185  A    between atoms: _423  and  _424
REMARK  186  A    between atoms: _423  and  _426
REMARK  187  A    between atoms: _426  and  _427
REMARK  188  A    between atoms: _432  and  _434
REMARK  189  A    between atoms: _434  and  _435
REMARK  190  A    between atoms: _434  and  _437
REMARK  191  A    between atoms: _437  and  _438
REMARK  192  A    between atoms: _443  and  _445
REMARK  193  A    between atoms: _445  and  _446
REMARK  194  A    between atoms: _449  and  _451
REMARK  195  A    between atoms: _451  and  _452
REMARK  196  A    between atoms: _451  and  _454
REMARK  197  A    between atoms: _454  and  _455
REMARK  198  A    between atoms: _460  and  _462
REMARK  199  A    between atoms: _462  and  _463
REMARK  200  A    between atoms: _466  and  _468
REMARK  201  A    between atoms: _468  and  _469
REMARK  202  A    between atoms: _472  and  _474
REMARK  203  A    between atoms: _474  and  _475
REMARK  204  A    between atoms: _474  and  _477
REMARK  205  A    between atoms: _477  and  _478
REMARK  206  A    between atoms: _483  and  _485
REMARK  207  A    between atoms: _485  and  _486
REMARK  208  A    between atoms: _485  and  _488
REMARK  209  A    between atoms: _488  and  _489
REMARK  210  A    between atoms: _492  and  _494
REMARK  211  A    between atoms: _494  and  _495
REMARK  212  A    between atoms: _497  and  _499
REMARK  213  A    between atoms: _499  and  _500
REMARK  214  A    between atoms: _499  and  _502
REMARK  215  A    between atoms: _502  and  _503
REMARK  216  A    between atoms: _503  and  _504
REMARK  217  A    between atoms: _507  and  _509
REMARK  218  A    between atoms: _509  and  _510
REMARK  219  A    between atoms: _509  and  _512
REMARK  220  A    between atoms: _512  and  _513
REMARK  221  A    between atoms: _516  and  _518
REMARK  222  A    between atoms: _518  and  _519
REMARK  223  A    between atoms: _518  and  _521
REMARK  224  A    between atoms: _521  and  _522
REMARK  225  A    between atoms: _524  and  _526
REMARK  226  A    between atoms: _526  and  _527
REMARK  227  A    between atoms: _526  and  _529
REMARK  228  A    between atoms: _529  and  _530
REMARK  229  A    between atoms: _533  and  _535
REMARK  230  A    between atoms: _535  and  _536
REMARK  231  A    between atoms: _535  and  _538
REMARK  232  A    between atoms: _538  and  _539
REMARK  233  A    between atoms: _539  and  _540
REMARK  234  A    between atoms: _542  and  _544
REMARK  235  A    between atoms: _544  and  _545
REMARK  236  A    between atoms: _548  and  _550
REMARK  237  A    between atoms: _550  and  _551
REMARK  238  A    between atoms: _554  and  _556
REMARK  239  A    between atoms: _556  and  _557
REMARK  240  A    between atoms: _556  and  _559
REMARK  241  A    between atoms: _559  and  _560
REMARK  242  A    between atoms: _563  and  _565
REMARK  243  A    between atoms: _565  and  _566
REMARK  244  A    between atoms: _569  and  _571
REMARK  245  A    between atoms: _571  and  _572
REMARK                            x       y       z     vdW  Elec       q    Type
REMARK                         _______ _______ _______ _____ _____    ______ ____
ROOT
ATOM      1  O   HOH     1      81.040   6.508   7.132  0.00  0.00    +0.000 OA
ENDROOT
TORSDOF 0
REMARK  Name = ../refined-set-2016/3ccz/3ccz_pocket.pdb
REMARK  245 active torsions:
REMARK  status: ('A' for Active; 'I' for Inactive)
REMARK    1  A    between atoms: _1  and  _3
REMARK    2  A    between atoms: _3  and  _4
REMARK    3  A    between atoms: _3  and  _6
REMARK    4  A    between atoms: _6  and  _7
REMARK    5  A    between atoms: _7  and  _8
REMARK    6  A    between atoms: _11  and  _13
REMARK    7  A    between atoms: _13  and  _14
REMARK    8  A    between atoms: _13  and  _16
REMARK    9  A    between atoms: _16  and  _17
REMARK   10  A    between atoms: _20  and  _22
REMARK   11  A    between atoms: _22  and  _23
REMARK   12  A    between atoms: _22  and  _25
REMARK   13  A    between atoms: _25  and  _26
REMARK   14  A    between atoms: _26  and  _27
REMARK   15  A    between atoms: _27  and  _28
REMARK   16  A    between atoms: _37  and  _39
REMARK   17  A    between atoms: _39  and  _40
REMARK   18  A    between atoms: _43  and  _44
REMARK   19  A    between atoms: _49  and  _51
REMARK   20  A    between atoms: _51  and  _52
REMARK   21  A    between atoms: _51  and  _54
REMARK   22  A    between atoms: _54  and  _55
REMARK   23  A    between atoms: _55  and  _56
REMARK   24  A    between atoms: _58  and  _60
REMARK   25  A    between atoms: _60  and  _61
REMARK   26  A    between atoms: _60  and  _63
REMARK   27  A    between atoms: _63  and  _64
REMARK   28  A    between atoms: _64  and  _65
REMARK   29  A    between atoms: _67  and  _69
REMARK   30  A    between atoms: _69  and  _70
REMARK   31  A    between atoms: _69  and  _72
REMARK   32  A    between atoms: _72  and  _73
REMARK   33  A    between atoms: _78  and  _80
REMARK   34  A    between atoms: _80  and  _81
REMARK   35  A    between atoms: _80  and  _83
REMARK   36  A    between atoms: _83  and  _84
REMARK   37  A    between atoms: _84  and  _85
REMARK   38  A    between atoms: _87  and  _89
REMARK   39  A    between atoms: _89  and  _90
REMARK   40  A    between atoms: _89  and  _92
REMARK   41  A    between atoms: _92  and  _93
REMARK   42  A    between atoms: _96  and  _98
REMARK   43  A    between atoms: _98  and  _99
REMARK   44  A    between atoms: _98  and  _101
REMARK   45  A    between atoms: _101  and  _102
REMARK   46  A    between atoms: _104  and  _106
REMARK   47  A    between atoms: _106  and  _107
REMARK   48  A    between atoms: _106  and  _109
REMARK   49  A    between atoms: _109  and  _110
REMARK   50  A    between atoms: _110  and  _111
REMARK   51  A    between atoms: _111  and  _112
REMARK   52  A    between atoms: _112  and  _113
REMARK   53  A    between atoms: _117  and  _119
REMARK   54  A    between atoms: _119  and  _120
REMARK   55  A    between atoms: _119  and  _122
REMARK   56  A    between atoms: _122  and  _123
REMARK   57  A    between atoms: _126  and  _128
REMARK   58  A    between atoms: _128  and  _129
REMARK   59  A    between atoms: _128  and  _131
REMARK   60  A    between atoms: _131  and  _132
REMARK   61  A    between atoms: _132  and  _133
REMARK   62  A    between atoms: _136  and  _138
REMARK   63  A    between atoms: _138  and  _139
REMARK   64  A    between atoms: _142  and  _144
REMARK   65  A    between atoms: _144  and  _145
REMARK   66  A    between atoms: _144  and  _147
REMARK   67  A    between atoms: _150  and  _152
REMARK   68  A    between atoms: _152  and  _153
REMARK   69  A    between atoms: _152  and  _155
REMARK   70  A    between atoms: _155  and  _156
REMARK   71  A    between atoms: _158  and  _160
REMARK   72  A    between atoms: _160  and  _161
REMARK   73  A    between atoms: _163  and  _165
REMARK   74  A    between atoms: _165  and  _166
REMARK   75  A    between atoms: _165  and  _168
REMARK   76  A    between atoms: _168  and  _169
REMARK   77  A    between atoms: _174  and  _176
REMARK   78  A    between atoms: _176  and  _177
REMARK   79  A    between atoms: _176  and  _179
REMARK   80  A    between atoms: _179  and  _180
REMARK   81  A    between atoms: _185  and  _186
REMARK   82  A    between atoms: _188  and  _190
REMARK   83  A    between atoms: _190  and  _191
REMARK   84  A    between atoms: _190  and  _193
REMARK   85  A    between atoms: _195  and  _197
REMARK   86  A    between atoms: _197  and  _198
REMARK   87  A    between atoms: _197  and  _200
REMARK   88  A    between atoms: _200  and  _201
REMARK   89  A    between atoms: _204  and  _206
REMARK   90  A    between atoms: _206  and  _207
REMARK   91  A    between atoms: _206  and  _209
REMARK   92  A    between atoms: _209  and  _210
REMARK   93  A    between atoms: _213  and  _215
REMARK   94  A    between atoms: _215  and  _216
REMARK   95  A    between atoms: _215  and  _218
REMARK   96  A    between atoms: _218  and  _219
REMARK   97  A    between atoms: _219  and  _220
REMARK   98  A    between atoms: _220  and  _221
REMARK   99  A    between atoms: _221  and  _222
REMARK  100  A    between atoms: _226  and  _228
REMARK  101  A    between atoms: _228  and  _229
REMARK  102  A    between atoms: _228  and  _231
REMARK  103  A    between atoms: _231  and  _232
REMARK  104  A    between atoms: _232  and  _233
REMARK  105  A    between atoms: _233  and  _234
REMARK  106  A    between atoms: _234  and  _235
REMARK  107  A    between atoms: _239  and  _241
REMARK  108  A    between atoms: _241  and  _242
REMARK  109  A    between atoms: _241  and  _244
REMARK  110  A    between atoms: _244  and  _245
REMARK  111  A    between atoms: _245  and  _246
REMARK  112  A    between atoms: _246  and  _247
REMARK  113  A    between atoms: _256  and  _258
REMARK  114  A    between atoms: _258  and  _259
REMARK  115  A    between atoms: _258  and  _261
REMARK  116  A    between atoms: _261  and  _262
REMARK  117  A    between atoms: _265  and  _267
REMARK  118  A    between atoms: _267  and  _268
REMARK  119  A    between atoms: _271  and  _273
REMARK  120  A    between atoms: _273  and  _274
REMARK  121  A    between atoms: _273  and  _276
REMARK  122  A    between atoms: _276  and  _277
REMARK  123  A    between atoms: _277  and  _278
REMARK  124  A    between atoms: _283  and  _285
REMARK  125  A    between atoms: _285  and  _286
REMARK  126  A    between atoms: _285  and  _288
REMARK  127  A    between atoms: _288  and  _289
REMARK  128  A    between atoms: _289  and  _290
REMARK  129  A    between atoms: _293  and  _295
REMARK  130  A    between atoms: _295  and  _296
REMARK  131  A    between atoms: _298  and  _300
REMARK  132  A    between atoms: _300  and  _301
REMARK  133  A    between atoms: _300  and  _303
REMARK  134  A    between atoms: _305  and  _307
REMARK  135  A    between atoms: _307  and  _308
REMARK  136  A    between atoms: _307  and  _310
REMARK  137  A    between atoms: _310  and  _311
REMARK  138  A    between atoms: _314  and  _316
REMARK  139  A    between atoms: _316  and  _317
REMARK  140  A    between atoms: _316  and  _319
REMARK  141  A    between atoms: _322  and  _324
REMARK  142  A    between atoms: _324  and  _325
REMARK  143  A    between atoms: _328  and  _330
REMARK  144  A    between atoms: _330  and  _331
REMARK  145  A    between atoms: _330  and  _333
REMARK  146  A    between atoms: _333  and  _334
REMARK  147  A    between atoms: _336  and  _338
REMARK  148  A    between atoms: _338  and  _339
REMARK  149  A    between atoms: _338  and  _341
REMARK  150  A    between atoms: _341  and  _342
REMARK  151  A    between atoms: _345  and  _347
REMARK  152  A    between atoms: _347  and  _348
REMARK  153  A    between atoms: _347  and  _350
REMARK  154  A    between atoms: _350  and  _351
REMARK  155  A    between atoms: _356  and  _358
REMARK  156  A    between atoms: _358  and  _359
REMARK  157  A    between atoms: _358  and  _361
REMARK  158  A    between atoms: _361  and  _362
REMARK  159  A    between atoms: _362  and  _363
REMARK  160  A    between atoms: _363  and  _364
REMARK  161  A    between atoms: _373  and  _375
REMARK  162  A    between atoms: _375  and  _376
REMARK  163  A    between atoms: _378  and  _380
REMARK  164  A    between atoms: _380  and  _381
REMARK  165  A    between atoms: _380  and  _383
REMARK  166  A    between atoms: _386  and  _388
REMARK  167  A    between atoms: _388  and  _389
REMARK  168  A    between atoms: _388  and  _391
REMARK  169  A    between atoms: _391  and  _392
REMARK  170  A    between atoms: _395  and  _397
REMARK  171  A    between atoms: _397  and  _398
REMARK  172  A    between atoms: _397  and  _400
REMARK  173  A    between atoms: _400  and  _401
REMARK  174  A    between atoms: _401  and  _402
REMARK  175  A    between atoms: _402  and  _403
REMARK  176  A    between atoms: _403  and  _404
REMARK  177  A    between atoms: _408  and  _410
REMARK  178  A    between atoms: _410  and  _411
REMARK  179  A    between atoms: _410  and  _413
REMARK  180  A    between atoms: _413  and  _414
REMARK  181  A    between atoms: _414  and  _415
REMARK  182  A    between atoms: _415  and  _416
REMARK  183  A    between atoms: _416  and  _417
REMARK  184  A    between atoms: _421  and  _423
REMARK  185  A    between atoms: _423  and  _424
REMARK  186  A    between atoms: _423  and  _426
REMARK  187  A    between atoms: _426  and  _427
REMARK  188  A    between atoms: _432  and  _434
REMARK  189  A    between atoms: _434  and  _435
REMARK  190  A    between atoms: _434  and  _437
REMARK  191  A    between atoms: _437  and  _438
REMARK  192  A    between atoms: _443  and  _445
REMARK  193  A    between atoms: _445  and  _446
REMARK  194  A    between atoms: _449  and  _451
REMARK  195  A    between atoms: _451  and  _452
REMARK  196  A    between atoms: _451  and  _454
REMARK  197  A    between atoms: _454  and  _455
REMARK  198  A    between atoms: _460  and  _462
REMARK  199  A    between atoms: _462  and  _463
REMARK  200  A    between atoms: _466  and  _468
REMARK  201  A    between atoms: _468  and  _469
REMARK  202  A    between atoms: _472  and  _474
REMARK  203  A    between atoms: _474  and  _475
REMARK  204  A    between atoms: _474  and  _477
REMARK  205  A    between atoms: _477  and  _478
REMARK  206  A    between atoms: _483  and  _485
REMARK  207  A    between atoms: _485  and  _486
REMARK  208  A    between atoms: _485  and  _488
REMARK  209  A    between atoms: _488  and  _489
REMARK  210  A    between atoms: _492  and  _494
REMARK  211  A    between atoms: _494  and  _495
REMARK  212  A    between atoms: _497  and  _499
REMARK  213  A    between atoms: _499  and  _500
REMARK  214  A    between atoms: _499  and  _502
REMARK  215  A    between atoms: _502  and  _503
REMARK  216  A    between atoms: _503  and  _504
REMARK  217  A    between atoms: _507  and  _509
REMARK  218  A    between atoms: _509  and  _510
REMARK  219  A    between atoms: _509  and  _512
REMARK  220  A    between atoms: _512  and  _513
REMARK  221  A    between atoms: _516  and  _518
REMARK  222  A    between atoms: _518  and  _519
REMARK  223  A    between atoms: _518  and  _521
REMARK  224  A    between atoms: _521  and  _522
REMARK  225  A    between atoms: _524  and  _526
REMARK  226  A    between atoms: _526  and  _527
REMARK  227  A    between atoms: _526  and  _529
REMARK  228  A    between atoms: _529  and  _530
REMARK  229  A    between atoms: _533  and  _535
REMARK  230  A    between atoms: _535  and  _536
REMARK  231  A    between atoms: _535  and  _538
REMARK  232  A    between atoms: _538  and  _539
REMARK  233  A    between atoms: _539  and  _540
REMARK  234  A    between atoms: _542  and  _544
REMARK  235  A    between atoms: _544  and  _545
REMARK  236  A    between atoms: _548  and  _550
REMARK  237  A    between atoms: _550  and  _551
REMARK  238  A    between atoms: _554  and  _556
REMARK  239  A    between atoms: _556  and  _557
REMARK  240  A    between atoms: _556  and  _559
REMARK  241  A    between atoms: _559  and  _560
REMARK  242  A    between atoms: _563  and  _565
REMARK  243  A    between atoms: _565  and  _566
REMARK  244  A    between atoms: _569  and  _571
REMARK  245  A    between atoms: _571  and  _572
REMARK                            x       y       z     vdW  Elec       q    Type
REMARK                         _______ _______ _______ _____ _____    ______ ____
ROOT
ATOM      1  O   HOH     1      79.616  14.662  -5.128  0.00  0.00    +0.000 OA
ENDROOT
TORSDOF 0
REMARK  Name = ../refined-set-2016/3ccz/3ccz_pocket.pdb
REMARK  245 active torsions:
REMARK  status: ('A' for Active; 'I' for Inactive)
REMARK    1  A    between atoms: _1  and  _3
REMARK    2  A    between atoms: _3  and  _4
REMARK    3  A    between atoms: _3  and  _6
REMARK    4  A    between atoms: _6  and  _7
REMARK    5  A    between atoms: _7  and  _8
REMARK    6  A    between atoms: _11  and  _13
REMARK    7  A    between atoms: _13  and  _14
REMARK    8  A    between atoms: _13  and  _16
REMARK    9  A    between atoms: _16  and  _17
REMARK   10  A    between atoms: _20  and  _22
REMARK   11  A    between atoms: _22  and  _23
REMARK   12  A    between atoms: _22  and  _25
REMARK   13  A    between atoms: _25  and  _26
REMARK   14  A    between atoms: _26  and  _27
REMARK   15  A    between atoms: _27  and  _28
REMARK   16  A    between atoms: _37  and  _39
REMARK   17  A    between atoms: _39  and  _40
REMARK   18  A    between atoms: _43  and  _44
REMARK   19  A    between atoms: _49  and  _51
REMARK   20  A    between atoms: _51  and  _52
REMARK   21  A    between atoms: _51  and  _54
REMARK   22  A    between atoms: _54  and  _55
REMARK   23  A    between atoms: _55  and  _56
REMARK   24  A    between atoms: _58  and  _60
REMARK   25  A    between atoms: _60  and  _61
REMARK   26  A    between atoms: _60  and  _63
REMARK   27  A    between atoms: _63  and  _64
REMARK   28  A    between atoms: _64  and  _65
REMARK   29  A    between atoms: _67  and  _69
REMARK   30  A    between atoms: _69  and  _70
REMARK   31  A    between atoms: _69  and  _72
REMARK   32  A    between atoms: _72  and  _73
REMARK   33  A    between atoms: _78  and  _80
REMARK   34  A    between atoms: _80  and  _81
REMARK   35  A    between atoms: _80  and  _83
REMARK   36  A    between atoms: _83  and  _84
REMARK   37  A    between atoms: _84  and  _85
REMARK   38  A    between atoms: _87  and  _89
REMARK   39  A    between atoms: _89  and  _90
REMARK   40  A    between atoms: _89  and  _92
REMARK   41  A    between atoms: _92  and  _93
REMARK   42  A    between atoms: _96  and  _98
REMARK   43  A    between atoms: _98  and  _99
REMARK   44  A    between atoms: _98  and  _101
REMARK   45  A    between atoms: _101  and  _102
REMARK   46  A    between atoms: _104  and  _106
REMARK   47  A    between atoms: _106  and  _107
REMARK   48  A    between atoms: _106  and  _109
REMARK   49  A    between atoms: _109  and  _110
REMARK   50  A    between atoms: _110  and  _111
REMARK   51  A    between atoms: _111  and  _112
REMARK   52  A    between atoms: _112  and  _113
REMARK   53  A    between atoms: _117  and  _119
REMARK   54  A    between atoms: _119  and  _120
REMARK   55  A    between atoms: _119  and  _122
REMARK   56  A    between atoms: _122  and  _123
REMARK   57  A    between atoms: _126  and  _128
REMARK   58  A    between atoms: _128  and  _129
REMARK   59  A    between atoms: _128  and  _131
REMARK   60  A    between atoms: _131  and  _132
REMARK   61  A    between atoms: _132  and  _133
REMARK   62  A    between atoms: _136  and  _138
REMARK   63  A    between atoms: _138  and  _139
REMARK   64  A    between atoms: _142  and  _144
REMARK   65  A    between atoms: _144  and  _145
REMARK   66  A    between atoms: _144  and  _147
REMARK   67  A    between atoms: _150  and  _152
REMARK   68  A    between atoms: _152  and  _153
REMARK   69  A    between atoms: _152  and  _155
REMARK   70  A    between atoms: _155  and  _156
REMARK   71  A    between atoms: _158  and  _160
REMARK   72  A    between atoms: _160  and  _161
REMARK   73  A    between atoms: _163  and  _165
REMARK   74  A    between atoms: _165  and  _166
REMARK   75  A    between atoms: _165  and  _168
REMARK   76  A    between atoms: _168  and  _169
REMARK   77  A    between atoms: _174  and  _176
REMARK   78  A    between atoms: _176  and  _177
REMARK   79  A    between atoms: _176  and  _179
REMARK   80  A    between atoms: _179  and  _180
REMARK   81  A    between atoms: _185  and  _186
REMARK   82  A    between atoms: _188  and  _190
REMARK   83  A    between atoms: _190  and  _191
REMARK   84  A    between atoms: _190  and  _193
REMARK   85  A    between atoms: _195  and  _197
REMARK   86  A    between atoms: _197  and  _198
REMARK   87  A    between atoms: _197  and  _200
REMARK   88  A    between atoms: _200  and  _201
REMARK   89  A    between atoms: _204  and  _206
REMARK   90  A    between atoms: _206  and  _207
REMARK   91  A    between atoms: _206  and  _209
REMARK   92  A    between atoms: _209  and  _210
REMARK   93  A    between atoms: _213  and  _215
REMARK   94  A    between atoms: _215  and  _216
REMARK   95  A    between atoms: _215  and  _218
REMARK   96  A    between atoms: _218  and  _219
REMARK   97  A    between atoms: _219  and  _220
REMARK   98  A    between atoms: _220  and  _221
REMARK   99  A    between atoms: _221  and  _222
REMARK  100  A    between atoms: _226  and  _228
REMARK  101  A    between atoms: _228  and  _229
REMARK  102  A    between atoms: _228  and  _231
REMARK  103  A    between atoms: _231  and  _232
REMARK  104  A    between atoms: _232  and  _233
REMARK  105  A    between atoms: _233  and  _234
REMARK  106  A    between atoms: _234  and  _235
REMARK  107  A    between atoms: _239  and  _241
REMARK  108  A    between atoms: _241  and  _242
REMARK  109  A    between atoms: _241  and  _244
REMARK  110  A    between atoms: _244  and  _245
REMARK  111  A    between atoms: _245  and  _246
REMARK  112  A    between atoms: _246  and  _247
REMARK  113  A    between atoms: _256  and  _258
REMARK  114  A    between atoms: _258  and  _259
REMARK  115  A    between atoms: _258  and  _261
REMARK  116  A    between atoms: _261  and  _262
REMARK  117  A    between atoms: _265  and  _267
REMARK  118  A    between atoms: _267  and  _268
REMARK  119  A    between atoms: _271  and  _273
REMARK  120  A    between atoms: _273  and  _274
REMARK  121  A    between atoms: _273  and  _276
REMARK  122  A    between atoms: _276  and  _277
REMARK  123  A    between atoms: _277  and  _278
REMARK  124  A    between atoms: _283  and  _285
REMARK  125  A    between atoms: _285  and  _286
REMARK  126  A    between atoms: _285  and  _288
REMARK  127  A    between atoms: _288  and  _289
REMARK  128  A    between atoms: _289  and  _290
REMARK  129  A    between atoms: _293  and  _295
REMARK  130  A    between atoms: _295  and  _296
REMARK  131  A    between atoms: _298  and  _300
REMARK  132  A    between atoms: _300  and  _301
REMARK  133  A    between atoms: _300  and  _303
REMARK  134  A    between atoms: _305  and  _307
REMARK  135  A    between atoms: _307  and  _308
REMARK  136  A    between atoms: _307  and  _310
REMARK  137  A    between atoms: _310  and  _311
REMARK  138  A    between atoms: _314  and  _316
REMARK  139  A    between atoms: _316  and  _317
REMARK  140  A    between atoms: _316  and  _319
REMARK  141  A    between atoms: _322  and  _324
REMARK  142  A    between atoms: _324  and  _325
REMARK  143  A    between atoms: _328  and  _330
REMARK  144  A    between atoms: _330  and  _331
REMARK  145  A    between atoms: _330  and  _333
REMARK  146  A    between atoms: _333  and  _334
REMARK  147  A    between atoms: _336  and  _338
REMARK  148  A    between atoms: _338  and  _339
REMARK  149  A    between atoms: _338  and  _341
REMARK  150  A    between atoms: _341  and  _342
REMARK  151  A    between atoms: _345  and  _347
REMARK  152  A    between atoms: _347  and  _348
REMARK  153  A    between atoms: _347  and  _350
REMARK  154  A    between atoms: _350  and  _351
REMARK  155  A    between atoms: _356  and  _358
REMARK  156  A    between atoms: _358  and  _359
REMARK  157  A    between atoms: _358  and  _361
REMARK  158  A    between atoms: _361  and  _362
REMARK  159  A    between atoms: _362  and  _363
REMARK  160  A    between atoms: _363  and  _364
REMARK  161  A    between atoms: _373  and  _375
REMARK  162  A    between atoms: _375  and  _376
REMARK  163  A    between atoms: _378  and  _380
REMARK  164  A    between atoms: _380  and  _381
REMARK  165  A    between atoms: _380  and  _383
REMARK  166  A    between atoms: _386  and  _388
REMARK  167  A    between atoms: _388  and  _389
REMARK  168  A    between atoms: _388  and  _391
REMARK  169  A    between atoms: _391  and  _392
REMARK  170  A    between atoms: _395  and  _397
REMARK  171  A    between atoms: _397  and  _398
REMARK  172  A    between atoms: _397  and  _400
REMARK  173  A    between atoms: _400  and  _401
REMARK  174  A    between atoms: _401  and  _402
REMARK  175  A    between atoms: _402  and  _403
REMARK  176  A    between atoms: _403  and  _404
REMARK  177  A    between atoms: _408  and  _410
REMARK  178  A    between atoms: _410  and  _411
REMARK  179  A    between atoms: _410  and  _413
REMARK  180  A    between atoms: _413  and  _414
REMARK  181  A    between atoms: _414  and  _415
REMARK  182  A    between atoms: _415  and  _416
REMARK  183  A    between atoms: _416  and  _417
REMARK  184  A    between atoms: _421  and  _423
REMARK  185  A    between atoms: _423  and  _424
REMARK  186  A    between atoms: _423  and  _426
REMARK  187  A    between atoms: _426  and  _427
REMARK  188  A    between atoms: _432  and  _434
REMARK  189  A    between atoms: _434  and  _435
REMARK  190  A    between atoms: _434  and  _437
REMARK  191  A    between atoms: _437  and  _438
REMARK  192  A    between atoms: _443  and  _445
REMARK  193  A    between atoms: _445  and  _446
REMARK  194  A    between atoms: _449  and  _451
REMARK  195  A    between atoms: _451  and  _452
REMARK  196  A    between atoms: _451  and  _454
REMARK  197  A    between atoms: _454  and  _455
REMARK  198  A    between atoms: _460  and  _462
REMARK  199  A    between atoms: _462  and  _463
REMARK  200  A    between atoms: _466  and  _468
REMARK  201  A    between atoms: _468  and  _469
REMARK  202  A    between atoms: _472  and  _474
REMARK  203  A    between atoms: _474  and  _475
REMARK  204  A    between atoms: _474  and  _477
REMARK  205  A    between atoms: _477  and  _478
REMARK  206  A    between atoms: _483  and  _485
REMARK  207  A    between atoms: _485  and  _486
REMARK  208  A    between atoms: _485  and  _488
REMARK  209  A    between atoms: _488  and  _489
REMARK  210  A    between atoms: _492  and  _494
REMARK  211  A    between atoms: _494  and  _495
REMARK  212  A    between atoms: _497  and  _499
REMARK  213  A    between atoms: _499  and  _500
REMARK  214  A    between atoms: _499  and  _502
REMARK  215  A    between atoms: _502  and  _503
REMARK  216  A    between atoms: _503  and  _504
REMARK  217  A    between atoms: _507  and  _509
REMARK  218  A    between atoms: _509  and  _510
REMARK  219  A    between atoms: _509  and  _512
REMARK  220  A    between atoms: _512  and  _513
REMARK  221  A    between atoms: _516  and  _518
REMARK  222  A    between atoms: _518  and  _519
REMARK  223  A    between atoms: _518  and  _521
REMARK  224  A    between atoms: _521  and  _522
REMARK  225  A    between atoms: _524  and  _526
REMARK  226  A    between atoms: _526  and  _527
REMARK  227  A    between atoms: _526  and  _529
REMARK  228  A    between atoms: _529  and  _530
REMARK  229  A    between atoms: _533  and  _535
REMARK  230  A    between atoms: _535  and  _536
REMARK  231  A    between atoms: _535  and  _538
REMARK  232  A    between atoms: _538  and  _539
REMARK  233  A    between atoms: _539  and  _540
REMARK  234  A    between atoms: _542  and  _544
REMARK  235  A    between atoms: _544  and  _545
REMARK  236  A    between atoms: _548  and  _550
REMARK  237  A    between atoms: _550  and  _551
REMARK  238  A    between atoms: _554  and  _556
REMARK  239  A    between atoms: _556  and  _557
REMARK  240  A    between atoms: _556  and  _559
REMARK  241  A    between atoms: _559  and  _560
REMARK  242  A    between atoms: _563  and  _565
REMARK  243  A    between atoms: _565  and  _566
REMARK  244  A    between atoms: _569  and  _571
REMARK  245  A    between atoms: _571  and  _572
REMARK                            x       y       z     vdW  Elec       q    Type
REMARK                         _______ _______ _______ _____ _____    ______ ____
ROOT
ATOM      1  O   HOH     1      84.995  20.174  -8.966  0.00  0.00    +0.000 OA
ENDROOT
TORSDOF 0
REMARK  Name = ../refined-set-2016/3ccz/3ccz_pocket.pdb
REMARK  245 active torsions:
REMARK  status: ('A' for Active; 'I' for Inactive)
REMARK    1  A    between atoms: _1  and  _3
REMARK    2  A    between atoms: _3  and  _4
REMARK    3  A    between atoms: _3  and  _6
REMARK    4  A    between atoms: _6  and  _7
REMARK    5  A    between atoms: _7  and  _8
REMARK    6  A    between atoms: _11  and  _13
REMARK    7  A    between atoms: _13  and  _14
REMARK    8  A    between atoms: _13  and  _16
REMARK    9  A    between atoms: _16  and  _17
REMARK   10  A    between atoms: _20  and  _22
REMARK   11  A    between atoms: _22  and  _23
REMARK   12  A    between atoms: _22  and  _25
REMARK   13  A    between atoms: _25  and  _26
REMARK   14  A    between atoms: _26  and  _27
REMARK   15  A    between atoms: _27  and  _28
REMARK   16  A    between atoms: _37  and  _39
REMARK   17  A    between atoms: _39  and  _40
REMARK   18  A    between atoms: _43  and  _44
REMARK   19  A    between atoms: _49  and  _51
REMARK   20  A    between atoms: _51  and  _52
REMARK   21  A    between atoms: _51  and  _54
REMARK   22  A    between atoms: _54  and  _55
REMARK   23  A    between atoms: _55  and  _56
REMARK   24  A    between atoms: _58  and  _60
REMARK   25  A    between atoms: _60  and  _61
REMARK   26  A    between atoms: _60  and  _63
REMARK   27  A    between atoms: _63  and  _64
REMARK   28  A    between atoms: _64  and  _65
REMARK   29  A    between atoms: _67  and  _69
REMARK   30  A    between atoms: _69  and  _70
REMARK   31  A    between atoms: _69  and  _72
REMARK   32  A    between atoms: _72  and  _73
REMARK   33  A    between atoms: _78  and  _80
REMARK   34  A    between atoms: _80  and  _81
REMARK   35  A    between atoms: _80  and  _83
REMARK   36  A    between atoms: _83  and  _84
REMARK   37  A    between atoms: _84  and  _85
REMARK   38  A    between atoms: _87  and  _89
REMARK   39  A    between atoms: _89  and  _90
REMARK   40  A    between atoms: _89  and  _92
REMARK   41  A    between atoms: _92  and  _93
REMARK   42  A    between atoms: _96  and  _98
REMARK   43  A    between atoms: _98  and  _99
REMARK   44  A    between atoms: _98  and  _101
REMARK   45  A    between atoms: _101  and  _102
REMARK   46  A    between atoms: _104  and  _106
REMARK   47  A    between atoms: _106  and  _107
REMARK   48  A    between atoms: _106  and  _109
REMARK   49  A    between atoms: _109  and  _110
REMARK   50  A    between atoms: _110  and  _111
REMARK   51  A    between atoms: _111  and  _112
REMARK   52  A    between atoms: _112  and  _113
REMARK   53  A    between atoms: _117  and  _119
REMARK   54  A    between atoms: _119  and  _120
REMARK   55  A    between atoms: _119  and  _122
REMARK   56  A    between atoms: _122  and  _123
REMARK   57  A    between atoms: _126  and  _128
REMARK   58  A    between atoms: _128  and  _129
REMARK   59  A    between atoms: _128  and  _131
REMARK   60  A    between atoms: _131  and  _132
REMARK   61  A    between atoms: _132  and  _133
REMARK   62  A    between atoms: _136  and  _138
REMARK   63  A    between atoms: _138  and  _139
REMARK   64  A    between atoms: _142  and  _144
REMARK   65  A    between atoms: _144  and  _145
REMARK   66  A    between atoms: _144  and  _147
REMARK   67  A    between atoms: _150  and  _152
REMARK   68  A    between atoms: _152  and  _153
REMARK   69  A    between atoms: _152  and  _155
REMARK   70  A    between atoms: _155  and  _156
REMARK   71  A    between atoms: _158  and  _160
REMARK   72  A    between atoms: _160  and  _161
REMARK   73  A    between atoms: _163  and  _165
REMARK   74  A    between atoms: _165  and  _166
REMARK   75  A    between atoms: _165  and  _168
REMARK   76  A    between atoms: _168  and  _169
REMARK   77  A    between atoms: _174  and  _176
REMARK   78  A    between atoms: _176  and  _177
REMARK   79  A    between atoms: _176  and  _179
REMARK   80  A    between atoms: _179  and  _180
REMARK   81  A    between atoms: _185  and  _186
REMARK   82  A    between atoms: _188  and  _190
REMARK   83  A    between atoms: _190  and  _191
REMARK   84  A    between atoms: _190  and  _193
REMARK   85  A    between atoms: _195  and  _197
REMARK   86  A    between atoms: _197  and  _198
REMARK   87  A    between atoms: _197  and  _200
REMARK   88  A    between atoms: _200  and  _201
REMARK   89  A    between atoms: _204  and  _206
REMARK   90  A    between atoms: _206  and  _207
REMARK   91  A    between atoms: _206  and  _209
REMARK   92  A    between atoms: _209  and  _210
REMARK   93  A    between atoms: _213  and  _215
REMARK   94  A    between atoms: _215  and  _216
REMARK   95  A    between atoms: _215  and  _218
REMARK   96  A    between atoms: _218  and  _219
REMARK   97  A    between atoms: _219  and  _220
REMARK   98  A    between atoms: _220  and  _221
REMARK   99  A    between atoms: _221  and  _222
REMARK  100  A    between atoms: _226  and  _228
REMARK  101  A    between atoms: _228  and  _229
REMARK  102  A    between atoms: _228  and  _231
REMARK  103  A    between atoms: _231  and  _232
REMARK  104  A    between atoms: _232  and  _233
REMARK  105  A    between atoms: _233  and  _234
REMARK  106  A    between atoms: _234  and  _235
REMARK  107  A    between atoms: _239  and  _241
REMARK  108  A    between atoms: _241  and  _242
REMARK  109  A    between atoms: _241  and  _244
REMARK  110  A    between atoms: _244  and  _245
REMARK  111  A    between atoms: _245  and  _246
REMARK  112  A    between atoms: _246  and  _247
REMARK  113  A    between atoms: _256  and  _258
REMARK  114  A    between atoms: _258  and  _259
REMARK  115  A    between atoms: _258  and  _261
REMARK  116  A    between atoms: _261  and  _262
REMARK  117  A    between atoms: _265  and  _267
REMARK  118  A    between atoms: _267  and  _268
REMARK  119  A    between atoms: _271  and  _273
REMARK  120  A    between atoms: _273  and  _274
REMARK  121  A    between atoms: _273  and  _276
REMARK  122  A    between atoms: _276  and  _277
REMARK  123  A    between atoms: _277  and  _278
REMARK  124  A    between atoms: _283  and  _285
REMARK  125  A    between atoms: _285  and  _286
REMARK  126  A    between atoms: _285  and  _288
REMARK  127  A    between atoms: _288  and  _289
REMARK  128  A    between atoms: _289  and  _290
REMARK  129  A    between atoms: _293  and  _295
REMARK  130  A    between atoms: _295  and  _296
REMARK  131  A    between atoms: _298  and  _300
REMARK  132  A    between atoms: _300  and  _301
REMARK  133  A    between atoms: _300  and  _303
REMARK  134  A    between atoms: _305  and  _307
REMARK  135  A    between atoms: _307  and  _308
REMARK  136  A    between atoms: _307  and  _310
REMARK  137  A    between atoms: _310  and  _311
REMARK  138  A    between atoms: _314  and  _316
REMARK  139  A    between atoms: _316  and  _317
REMARK  140  A    between atoms: _316  and  _319
REMARK  141  A    between atoms: _322  and  _324
REMARK  142  A    between atoms: _324  and  _325
REMARK  143  A    between atoms: _328  and  _330
REMARK  144  A    between atoms: _330  and  _331
REMARK  145  A    between atoms: _330  and  _333
REMARK  146  A    between atoms: _333  and  _334
REMARK  147  A    between atoms: _336  and  _338
REMARK  148  A    between atoms: _338  and  _339
REMARK  149  A    between atoms: _338  and  _341
REMARK  150  A    between atoms: _341  and  _342
REMARK  151  A    between atoms: _345  and  _347
REMARK  152  A    between atoms: _347  and  _348
REMARK  153  A    between atoms: _347  and  _350
REMARK  154  A    between atoms: _350  and  _351
REMARK  155  A    between atoms: _356  and  _358
REMARK  156  A    between atoms: _358  and  _359
REMARK  157  A    between atoms: _358  and  _361
REMARK  158  A    between atoms: _361  and  _362
REMARK  159  A    between atoms: _362  and  _363
REMARK  160  A    between atoms: _363  and  _364
REMARK  161  A    between atoms: _373  and  _375
REMARK  162  A    between atoms: _375  and  _376
REMARK  163  A    between atoms: _378  and  _380
REMARK  164  A    between atoms: _380  and  _381
REMARK  165  A    between atoms: _380  and  _383
REMARK  166  A    between atoms: _386  and  _388
REMARK  167  A    between atoms: _388  and  _389
REMARK  168  A    between atoms: _388  and  _391
REMARK  169  A    between atoms: _391  and  _392
REMARK  170  A    between atoms: _395  and  _397
REMARK  171  A    between atoms: _397  and  _398
REMARK  172  A    between atoms: _397  and  _400
REMARK  173  A    between atoms: _400  and  _401
REMARK  174  A    between atoms: _401  and  _402
REMARK  175  A    between atoms: _402  and  _403
REMARK  176  A    between atoms: _403  and  _404
REMARK  177  A    between atoms: _408  and  _410
REMARK  178  A    between atoms: _410  and  _411
REMARK  179  A    between atoms: _410  and  _413
REMARK  180  A    between atoms: _413  and  _414
REMARK  181  A    between atoms: _414  and  _415
REMARK  182  A    between atoms: _415  and  _416
REMARK  183  A    between atoms: _416  and  _417
REMARK  184  A    between atoms: _421  and  _423
REMARK  185  A    between atoms: _423  and  _424
REMARK  186  A    between atoms: _423  and  _426
REMARK  187  A    between atoms: _426  and  _427
REMARK  188  A    between atoms: _432  and  _434
REMARK  189  A    between atoms: _434  and  _435
REMARK  190  A    between atoms: _434  and  _437
REMARK  191  A    between atoms: _437  and  _438
REMARK  192  A    between atoms: _443  and  _445
REMARK  193  A    between atoms: _445  and  _446
REMARK  194  A    between atoms: _449  and  _451
REMARK  195  A    between atoms: _451  and  _452
REMARK  196  A    between atoms: _451  and  _454
REMARK  197  A    between atoms: _454  and  _455
REMARK  198  A    between atoms: _460  and  _462
REMARK  199  A    between atoms: _462  and  _463
REMARK  200  A    between atoms: _466  and  _468
REMARK  201  A    between atoms: _468  and  _469
REMARK  202  A    between atoms: _472  and  _474
REMARK  203  A    between atoms: _474  and  _475
REMARK  204  A    between atoms: _474  and  _477
REMARK  205  A    between atoms: _477  and  _478
REMARK  206  A    between atoms: _483  and  _485
REMARK  207  A    between atoms: _485  and  _486
REMARK  208  A    between atoms: _485  and  _488
REMARK  209  A    between atoms: _488  and  _489
REMARK  210  A    between atoms: _492  and  _494
REMARK  211  A    between atoms: _494  and  _495
REMARK  212  A    between atoms: _497  and  _499
REMARK  213  A    between atoms: _499  and  _500
REMARK  214  A    between atoms: _499  and  _502
REMARK  215  A    between atoms: _502  and  _503
REMARK  216  A    between atoms: _503  and  _504
REMARK  217  A    between atoms: _507  and  _509
REMARK  218  A    between atoms: _509  and  _510
REMARK  219  A    between atoms: _509  and  _512
REMARK  220  A    between atoms: _512  and  _513
REMARK  221  A    between atoms: _516  and  _518
REMARK  222  A    between atoms: _518  and  _519
REMARK  223  A    between atoms: _518  and  _521
REMARK  224  A    between atoms: _521  and  _522
REMARK  225  A    between atoms: _524  and  _526
REMARK  226  A    between atoms: _526  and  _527
REMARK  227  A    between atoms: _526  and  _529
REMARK  228  A    between atoms: _529  and  _530
REMARK  229  A    between atoms: _533  and  _535
REMARK  230  A    between atoms: _535  and  _536
REMARK  231  A    between atoms: _535  and  _538
REMARK  232  A    between atoms: _538  and  _539
REMARK  233  A    between atoms: _539  and  _540
REMARK  234  A    between atoms: _542  and  _544
REMARK  235  A    between atoms: _544  and  _545
REMARK  236  A    between atoms: _548  and  _550
REMARK  237  A    between atoms: _550  and  _551
REMARK  238  A    between atoms: _554  and  _556
REMARK  239  A    between atoms: _556  and  _557
REMARK  240  A    between atoms: _556  and  _559
REMARK  241  A    between atoms: _559  and  _560
REMARK  242  A    between atoms: _563  and  _565
REMARK  243  A    between atoms: _565  and  _566
REMARK  244  A    between atoms: _569  and  _571
REMARK  245  A    between atoms: _571  and  _572
REMARK                            x       y       z     vdW  Elec       q    Type
REMARK                         _______ _______ _______ _____ _____    ______ ____
ROOT
ATOM      1  O   HOH     1      73.743  17.130  -9.575  0.00  0.00    +0.000 OA
ENDROOT
TORSDOF 0
REMARK  Name = ../refined-set-2016/3ccz/3ccz_pocket.pdb
REMARK  245 active torsions:
REMARK  status: ('A' for Active; 'I' for Inactive)
REMARK    1  A    between atoms: _1  and  _3
REMARK    2  A    between atoms: _3  and  _4
REMARK    3  A    between atoms: _3  and  _6
REMARK    4  A    between atoms: _6  and  _7
REMARK    5  A    between atoms: _7  and  _8
REMARK    6  A    between atoms: _11  and  _13
REMARK    7  A    between atoms: _13  and  _14
REMARK    8  A    between atoms: _13  and  _16
REMARK    9  A    between atoms: _16  and  _17
REMARK   10  A    between atoms: _20  and  _22
REMARK   11  A    between atoms: _22  and  _23
REMARK   12  A    between atoms: _22  and  _25
REMARK   13  A    between atoms: _25  and  _26
REMARK   14  A    between atoms: _26  and  _27
REMARK   15  A    between atoms: _27  and  _28
REMARK   16  A    between atoms: _37  and  _39
REMARK   17  A    between atoms: _39  and  _40
REMARK   18  A    between atoms: _43  and  _44
REMARK   19  A    between atoms: _49  and  _51
REMARK   20  A    between atoms: _51  and  _52
REMARK   21  A    between atoms: _51  and  _54
REMARK   22  A    between atoms: _54  and  _55
REMARK   23  A    between atoms: _55  and  _56
REMARK   24  A    between atoms: _58  and  _60
REMARK   25  A    between atoms: _60  and  _61
REMARK   26  A    between atoms: _60  and  _63
REMARK   27  A    between atoms: _63  and  _64
REMARK   28  A    between atoms: _64  and  _65
REMARK   29  A    between atoms: _67  and  _69
REMARK   30  A    between atoms: _69  and  _70
REMARK   31  A    between atoms: _69  and  _72
REMARK   32  A    between atoms: _72  and  _73
REMARK   33  A    between atoms: _78  and  _80
REMARK   34  A    between atoms: _80  and  _81
REMARK   35  A    between atoms: _80  and  _83
REMARK   36  A    between atoms: _83  and  _84
REMARK   37  A    between atoms: _84  and  _85
REMARK   38  A    between atoms: _87  and  _89
REMARK   39  A    between atoms: _89  and  _90
REMARK   40  A    between atoms: _89  and  _92
REMARK   41  A    between atoms: _92  and  _93
REMARK   42  A    between atoms: _96  and  _98
REMARK   43  A    between atoms: _98  and  _99
REMARK   44  A    between atoms: _98  and  _101
REMARK   45  A    between atoms: _101  and  _102
REMARK   46  A    between atoms: _104  and  _106
REMARK   47  A    between atoms: _106  and  _107
REMARK   48  A    between atoms: _106  and  _109
REMARK   49  A    between atoms: _109  and  _110
REMARK   50  A    between atoms: _110  and  _111
REMARK   51  A    between atoms: _111  and  _112
REMARK   52  A    between atoms: _112  and  _113
REMARK   53  A    between atoms: _117  and  _119
REMARK   54  A    between atoms: _119  and  _120
REMARK   55  A    between atoms: _119  and  _122
REMARK   56  A    between atoms: _122  and  _123
REMARK   57  A    between atoms: _126  and  _128
REMARK   58  A    between atoms: _128  and  _129
REMARK   59  A    between atoms: _128  and  _131
REMARK   60  A    between atoms: _131  and  _132
REMARK   61  A    between atoms: _132  and  _133
REMARK   62  A    between atoms: _136  and  _138
REMARK   63  A    between atoms: _138  and  _139
REMARK   64  A    between atoms: _142  and  _144
REMARK   65  A    between atoms: _144  and  _145
REMARK   66  A    between atoms: _144  and  _147
REMARK   67  A    between atoms: _150  and  _152
REMARK   68  A    between atoms: _152  and  _153
REMARK   69  A    between atoms: _152  and  _155
REMARK   70  A    between atoms: _155  and  _156
REMARK   71  A    between atoms: _158  and  _160
REMARK   72  A    between atoms: _160  and  _161
REMARK   73  A    between atoms: _163  and  _165
REMARK   74  A    between atoms: _165  and  _166
REMARK   75  A    between atoms: _165  and  _168
REMARK   76  A    between atoms: _168  and  _169
REMARK   77  A    between atoms: _174  and  _176
REMARK   78  A    between atoms: _176  and  _177
REMARK   79  A    between atoms: _176  and  _179
REMARK   80  A    between atoms: _179  and  _180
REMARK   81  A    between atoms: _185  and  _186
REMARK   82  A    between atoms: _188  and  _190
REMARK   83  A    between atoms: _190  and  _191
REMARK   84  A    between atoms: _190  and  _193
REMARK   85  A    between atoms: _195  and  _197
REMARK   86  A    between atoms: _197  and  _198
REMARK   87  A    between atoms: _197  and  _200
REMARK   88  A    between atoms: _200  and  _201
REMARK   89  A    between atoms: _204  and  _206
REMARK   90  A    between atoms: _206  and  _207
REMARK   91  A    between atoms: _206  and  _209
REMARK   92  A    between atoms: _209  and  _210
REMARK   93  A    between atoms: _213  and  _215
REMARK   94  A    between atoms: _215  and  _216
REMARK   95  A    between atoms: _215  and  _218
REMARK   96  A    between atoms: _218  and  _219
REMARK   97  A    between atoms: _219  and  _220
REMARK   98  A    between atoms: _220  and  _221
REMARK   99  A    between atoms: _221  and  _222
REMARK  100  A    between atoms: _226  and  _228
REMARK  101  A    between atoms: _228  and  _229
REMARK  102  A    between atoms: _228  and  _231
REMARK  103  A    between atoms: _231  and  _232
REMARK  104  A    between atoms: _232  and  _233
REMARK  105  A    between atoms: _233  and  _234
REMARK  106  A    between atoms: _234  and  _235
REMARK  107  A    between atoms: _239  and  _241
REMARK  108  A    between atoms: _241  and  _242
REMARK  109  A    between atoms: _241  and  _244
REMARK  110  A    between atoms: _244  and  _245
REMARK  111  A    between atoms: _245  and  _246
REMARK  112  A    between atoms: _246  and  _247
REMARK  113  A    between atoms: _256  and  _258
REMARK  114  A    between atoms: _258  and  _259
REMARK  115  A    between atoms: _258  and  _261
REMARK  116  A    between atoms: _261  and  _262
REMARK  117  A    between atoms: _265  and  _267
REMARK  118  A    between atoms: _267  and  _268
REMARK  119  A    between atoms: _271  and  _273
REMARK  120  A    between atoms: _273  and  _274
REMARK  121  A    between atoms: _273  and  _276
REMARK  122  A    between atoms: _276  and  _277
REMARK  123  A    between atoms: _277  and  _278
REMARK  124  A    between atoms: _283  and  _285
REMARK  125  A    between atoms: _285  and  _286
REMARK  126  A    between atoms: _285  and  _288
REMARK  127  A    between atoms: _288  and  _289
REMARK  128  A    between atoms: _289  and  _290
REMARK  129  A    between atoms: _293  and  _295
REMARK  130  A    between atoms: _295  and  _296
REMARK  131  A    between atoms: _298  and  _300
REMARK  132  A    between atoms: _300  and  _301
REMARK  133  A    between atoms: _300  and  _303
REMARK  134  A    between atoms: _305  and  _307
REMARK  135  A    between atoms: _307  and  _308
REMARK  136  A    between atoms: _307  and  _310
REMARK  137  A    between atoms: _310  and  _311
REMARK  138  A    between atoms: _314  and  _316
REMARK  139  A    between atoms: _316  and  _317
REMARK  140  A    between atoms: _316  and  _319
REMARK  141  A    between atoms: _322  and  _324
REMARK  142  A    between atoms: _324  and  _325
REMARK  143  A    between atoms: _328  and  _330
REMARK  144  A    between atoms: _330  and  _331
REMARK  145  A    between atoms: _330  and  _333
REMARK  146  A    between atoms: _333  and  _334
REMARK  147  A    between atoms: _336  and  _338
REMARK  148  A    between atoms: _338  and  _339
REMARK  149  A    between atoms: _338  and  _341
REMARK  150  A    between atoms: _341  and  _342
REMARK  151  A    between atoms: _345  and  _347
REMARK  152  A    between atoms: _347  and  _348
REMARK  153  A    between atoms: _347  and  _350
REMARK  154  A    between atoms: _350  and  _351
REMARK  155  A    between atoms: _356  and  _358
REMARK  156  A    between atoms: _358  and  _359
REMARK  157  A    between atoms: _358  and  _361
REMARK  158  A    between atoms: _361  and  _362
REMARK  159  A    between atoms: _362  and  _363
REMARK  160  A    between atoms: _363  and  _364
REMARK  161  A    between atoms: _373  and  _375
REMARK  162  A    between atoms: _375  and  _376
REMARK  163  A    between atoms: _378  and  _380
REMARK  164  A    between atoms: _380  and  _381
REMARK  165  A    between atoms: _380  and  _383
REMARK  166  A    between atoms: _386  and  _388
REMARK  167  A    between atoms: _388  and  _389
REMARK  168  A    between atoms: _388  and  _391
REMARK  169  A    between atoms: _391  and  _392
REMARK  170  A    between atoms: _395  and  _397
REMARK  171  A    between atoms: _397  and  _398
REMARK  172  A    between atoms: _397  and  _400
REMARK  173  A    between atoms: _400  and  _401
REMARK  174  A    between atoms: _401  and  _402
REMARK  175  A    between atoms: _402  and  _403
REMARK  176  A    between atoms: _403  and  _404
REMARK  177  A    between atoms: _408  and  _410
REMARK  178  A    between atoms: _410  and  _411
REMARK  179  A    between atoms: _410  and  _413
REMARK  180  A    between atoms: _413  and  _414
REMARK  181  A    between atoms: _414  and  _415
REMARK  182  A    between atoms: _415  and  _416
REMARK  183  A    between atoms: _416  and  _417
REMARK  184  A    between atoms: _421  and  _423
REMARK  185  A    between atoms: _423  and  _424
REMARK  186  A    between atoms: _423  and  _426
REMARK  187  A    between atoms: _426  and  _427
REMARK  188  A    between atoms: _432  and  _434
REMARK  189  A    between atoms: _434  and  _435
REMARK  190  A    between atoms: _434  and  _437
REMARK  191  A    between atoms: _437  and  _438
REMARK  192  A    between atoms: _443  and  _445
REMARK  193  A    between atoms: _445  and  _446
REMARK  194  A    between atoms: _449  and  _451
REMARK  195  A    between atoms: _451  and  _452
REMARK  196  A    between atoms: _451  and  _454
REMARK  197  A    between atoms: _454  and  _455
REMARK  198  A    between atoms: _460  and  _462
REMARK  199  A    between atoms: _462  and  _463
REMARK  200  A    between atoms: _466  and  _468
REMARK  201  A    between atoms: _468  and  _469
REMARK  202  A    between atoms: _472  and  _474
REMARK  203  A    between atoms: _474  and  _475
REMARK  204  A    between atoms: _474  and  _477
REMARK  205  A    between atoms: _477  and  _478
REMARK  206  A    between atoms: _483  and  _485
REMARK  207  A    between atoms: _485  and  _486
REMARK  208  A    between atoms: _485  and  _488
REMARK  209  A    between atoms: _488  and  _489
REMARK  210  A    between atoms: _492  and  _494
REMARK  211  A    between atoms: _494  and  _495
REMARK  212  A    between atoms: _497  and  _499
REMARK  213  A    between atoms: _499  and  _500
REMARK  214  A    between atoms: _499  and  _502
REMARK  215  A    between atoms: _502  and  _503
REMARK  216  A    between atoms: _503  and  _504
REMARK  217  A    between atoms: _507  and  _509
REMARK  218  A    between atoms: _509  and  _510
REMARK  219  A    between atoms: _509  and  _512
REMARK  220  A    between atoms: _512  and  _513
REMARK  221  A    between atoms: _516  and  _518
REMARK  222  A    between atoms: _518  and  _519
REMARK  223  A    between atoms: _518  and  _521
REMARK  224  A    between atoms: _521  and  _522
REMARK  225  A    between atoms: _524  and  _526
REMARK  226  A    between atoms: _526  and  _527
REMARK  227  A    between atoms: _526  and  _529
REMARK  228  A    between atoms: _529  and  _530
REMARK  229  A    between atoms: _533  and  _535
REMARK  230  A    between atoms: _535  and  _536
REMARK  231  A    between atoms: _535  and  _538
REMARK  232  A    between atoms: _538  and  _539
REMARK  233  A    between atoms: _539  and  _540
REMARK  234  A    between atoms: _542  and  _544
REMARK  235  A    between atoms: _544  and  _545
REMARK  236  A    between atoms: _548  and  _550
REMARK  237  A    between atoms: _550  and  _551
REMARK  238  A    between atoms: _554  and  _556
REMARK  239  A    between atoms: _556  and  _557
REMARK  240  A    between atoms: _556  and  _559
REMARK  241  A    between atoms: _559  and  _560
REMARK  242  A    between atoms: _563  and  _565
REMARK  243  A    between atoms: _565  and  _566
REMARK  244  A    between atoms: _569  and  _571
REMARK  245  A    between atoms: _571  and  _572
REMARK                            x       y       z     vdW  Elec       q    Type
REMARK                         _______ _______ _______ _____ _____    ______ ____
ROOT
ATOM      1  O   HOH     1      80.686   2.380  -4.330  0.00  0.00    +0.000 OA
ENDROOT
TORSDOF 0
REMARK  Name = ../refined-set-2016/3ccz/3ccz_pocket.pdb
REMARK  245 active torsions:
REMARK  status: ('A' for Active; 'I' for Inactive)
REMARK    1  A    between atoms: _1  and  _3
REMARK    2  A    between atoms: _3  and  _4
REMARK    3  A    between atoms: _3  and  _6
REMARK    4  A    between atoms: _6  and  _7
REMARK    5  A    between atoms: _7  and  _8
REMARK    6  A    between atoms: _11  and  _13
REMARK    7  A    between atoms: _13  and  _14
REMARK    8  A    between atoms: _13  and  _16
REMARK    9  A    between atoms: _16  and  _17
REMARK   10  A    between atoms: _20  and  _22
REMARK   11  A    between atoms: _22  and  _23
REMARK   12  A    between atoms: _22  and  _25
REMARK   13  A    between atoms: _25  and  _26
REMARK   14  A    between atoms: _26  and  _27
REMARK   15  A    between atoms: _27  and  _28
REMARK   16  A    between atoms: _37  and  _39
REMARK   17  A    between atoms: _39  and  _40
REMARK   18  A    between atoms: _43  and  _44
REMARK   19  A    between atoms: _49  and  _51
REMARK   20  A    between atoms: _51  and  _52
REMARK   21  A    between atoms: _51  and  _54
REMARK   22  A    between atoms: _54  and  _55
REMARK   23  A    between atoms: _55  and  _56
REMARK   24  A    between atoms: _58  and  _60
REMARK   25  A    between atoms: _60  and  _61
REMARK   26  A    between atoms: _60  and  _63
REMARK   27  A    between atoms: _63  and  _64
REMARK   28  A    between atoms: _64  and  _65
REMARK   29  A    between atoms: _67  and  _69
REMARK   30  A    between atoms: _69  and  _70
REMARK   31  A    between atoms: _69  and  _72
REMARK   32  A    between atoms: _72  and  _73
REMARK   33  A    between atoms: _78  and  _80
REMARK   34  A    between atoms: _80  and  _81
REMARK   35  A    between atoms: _80  and  _83
REMARK   36  A    between atoms: _83  and  _84
REMARK   37  A    between atoms: _84  and  _85
REMARK   38  A    between atoms: _87  and  _89
REMARK   39  A    between atoms: _89  and  _90
REMARK   40  A    between atoms: _89  and  _92
REMARK   41  A    between atoms: _92  and  _93
REMARK   42  A    between atoms: _96  and  _98
REMARK   43  A    between atoms: _98  and  _99
REMARK   44  A    between atoms: _98  and  _101
REMARK   45  A    between atoms: _101  and  _102
REMARK   46  A    between atoms: _104  and  _106
REMARK   47  A    between atoms: _106  and  _107
REMARK   48  A    between atoms: _106  and  _109
REMARK   49  A    between atoms: _109  and  _110
REMARK   50  A    between atoms: _110  and  _111
REMARK   51  A    between atoms: _111  and  _112
REMARK   52  A    between atoms: _112  and  _113
REMARK   53  A    between atoms: _117  and  _119
REMARK   54  A    between atoms: _119  and  _120
REMARK   55  A    between atoms: _119  and  _122
REMARK   56  A    between atoms: _122  and  _123
REMARK   57  A    between atoms: _126  and  _128
REMARK   58  A    between atoms: _128  and  _129
REMARK   59  A    between atoms: _128  and  _131
REMARK   60  A    between atoms: _131  and  _132
REMARK   61  A    between atoms: _132  and  _133
REMARK   62  A    between atoms: _136  and  _138
REMARK   63  A    between atoms: _138  and  _139
REMARK   64  A    between atoms: _142  and  _144
REMARK   65  A    between atoms: _144  and  _145
REMARK   66  A    between atoms: _144  and  _147
REMARK   67  A    between atoms: _150  and  _152
REMARK   68  A    between atoms: _152  and  _153
REMARK   69  A    between atoms: _152  and  _155
REMARK   70  A    between atoms: _155  and  _156
REMARK   71  A    between atoms: _158  and  _160
REMARK   72  A    between atoms: _160  and  _161
REMARK   73  A    between atoms: _163  and  _165
REMARK   74  A    between atoms: _165  and  _166
REMARK   75  A    between atoms: _165  and  _168
REMARK   76  A    between atoms: _168  and  _169
REMARK   77  A    between atoms: _174  and  _176
REMARK   78  A    between atoms: _176  and  _177
REMARK   79  A    between atoms: _176  and  _179
REMARK   80  A    between atoms: _179  and  _180
REMARK   81  A    between atoms: _185  and  _186
REMARK   82  A    between atoms: _188  and  _190
REMARK   83  A    between atoms: _190  and  _191
REMARK   84  A    between atoms: _190  and  _193
REMARK   85  A    between atoms: _195  and  _197
REMARK   86  A    between atoms: _197  and  _198
REMARK   87  A    between atoms: _197  and  _200
REMARK   88  A    between atoms: _200  and  _201
REMARK   89  A    between atoms: _204  and  _206
REMARK   90  A    between atoms: _206  and  _207
REMARK   91  A    between atoms: _206  and  _209
REMARK   92  A    between atoms: _209  and  _210
REMARK   93  A    between atoms: _213  and  _215
REMARK   94  A    between atoms: _215  and  _216
REMARK   95  A    between atoms: _215  and  _218
REMARK   96  A    between atoms: _218  and  _219
REMARK   97  A    between atoms: _219  and  _220
REMARK   98  A    between atoms: _220  and  _221
REMARK   99  A    between atoms: _221  and  _222
REMARK  100  A    between atoms: _226  and  _228
REMARK  101  A    between atoms: _228  and  _229
REMARK  102  A    between atoms: _228  and  _231
REMARK  103  A    between atoms: _231  and  _232
REMARK  104  A    between atoms: _232  and  _233
REMARK  105  A    between atoms: _233  and  _234
REMARK  106  A    between atoms: _234  and  _235
REMARK  107  A    between atoms: _239  and  _241
REMARK  108  A    between atoms: _241  and  _242
REMARK  109  A    between atoms: _241  and  _244
REMARK  110  A    between atoms: _244  and  _245
REMARK  111  A    between atoms: _245  and  _246
REMARK  112  A    between atoms: _246  and  _247
REMARK  113  A    between atoms: _256  and  _258
REMARK  114  A    between atoms: _258  and  _259
REMARK  115  A    between atoms: _258  and  _261
REMARK  116  A    between atoms: _261  and  _262
REMARK  117  A    between atoms: _265  and  _267
REMARK  118  A    between atoms: _267  and  _268
REMARK  119  A    between atoms: _271  and  _273
REMARK  120  A    between atoms: _273  and  _274
REMARK  121  A    between atoms: _273  and  _276
REMARK  122  A    between atoms: _276  and  _277
REMARK  123  A    between atoms: _277  and  _278
REMARK  124  A    between atoms: _283  and  _285
REMARK  125  A    between atoms: _285  and  _286
REMARK  126  A    between atoms: _285  and  _288
REMARK  127  A    between atoms: _288  and  _289
REMARK  128  A    between atoms: _289  and  _290
REMARK  129  A    between atoms: _293  and  _295
REMARK  130  A    between atoms: _295  and  _296
REMARK  131  A    between atoms: _298  and  _300
REMARK  132  A    between atoms: _300  and  _301
REMARK  133  A    between atoms: _300  and  _303
REMARK  134  A    between atoms: _305  and  _307
REMARK  135  A    between atoms: _307  and  _308
REMARK  136  A    between atoms: _307  and  _310
REMARK  137  A    between atoms: _310  and  _311
REMARK  138  A    between atoms: _314  and  _316
REMARK  139  A    between atoms: _316  and  _317
REMARK  140  A    between atoms: _316  and  _319
REMARK  141  A    between atoms: _322  and  _324
REMARK  142  A    between atoms: _324  and  _325
REMARK  143  A    between atoms: _328  and  _330
REMARK  144  A    between atoms: _330  and  _331
REMARK  145  A    between atoms: _330  and  _333
REMARK  146  A    between atoms: _333  and  _334
REMARK  147  A    between atoms: _336  and  _338
REMARK  148  A    between atoms: _338  and  _339
REMARK  149  A    between atoms: _338  and  _341
REMARK  150  A    between atoms: _341  and  _342
REMARK  151  A    between atoms: _345  and  _347
REMARK  152  A    between atoms: _347  and  _348
REMARK  153  A    between atoms: _347  and  _350
REMARK  154  A    between atoms: _350  and  _351
REMARK  155  A    between atoms: _356  and  _358
REMARK  156  A    between atoms: _358  and  _359
REMARK  157  A    between atoms: _358  and  _361
REMARK  158  A    between atoms: _361  and  _362
REMARK  159  A    between atoms: _362  and  _363
REMARK  160  A    between atoms: _363  and  _364
REMARK  161  A    between atoms: _373  and  _375
REMARK  162  A    between atoms: _375  and  _376
REMARK  163  A    between atoms: _378  and  _380
REMARK  164  A    between atoms: _380  and  _381
REMARK  165  A    between atoms: _380  and  _383
REMARK  166  A    between atoms: _386  and  _388
REMARK  167  A    between atoms: _388  and  _389
REMARK  168  A    between atoms: _388  and  _391
REMARK  169  A    between atoms: _391  and  _392
REMARK  170  A    between atoms: _395  and  _397
REMARK  171  A    between atoms: _397  and  _398
REMARK  172  A    between atoms: _397  and  _400
REMARK  173  A    between atoms: _400  and  _401
REMARK  174  A    between atoms: _401  and  _402
REMARK  175  A    between atoms: _402  and  _403
REMARK  176  A    between atoms: _403  and  _404
REMARK  177  A    between atoms: _408  and  _410
REMARK  178  A    between atoms: _410  and  _411
REMARK  179  A    between atoms: _410  and  _413
REMARK  180  A    between atoms: _413  and  _414
REMARK  181  A    between atoms: _414  and  _415
REMARK  182  A    between atoms: _415  and  _416
REMARK  183  A    between atoms: _416  and  _417
REMARK  184  A    between atoms: _421  and  _423
REMARK  185  A    between atoms: _423  and  _424
REMARK  186  A    between atoms: _423  and  _426
REMARK  187  A    between atoms: _426  and  _427
REMARK  188  A    between atoms: _432  and  _434
REMARK  189  A    between atoms: _434  and  _435
REMARK  190  A    between atoms: _434  and  _437
REMARK  191  A    between atoms: _437  and  _438
REMARK  192  A    between atoms: _443  and  _445
REMARK  193  A    between atoms: _445  and  _446
REMARK  194  A    between atoms: _449  and  _451
REMARK  195  A    between atoms: _451  and  _452
REMARK  196  A    between atoms: _451  and  _454
REMARK  197  A    between atoms: _454  and  _455
REMARK  198  A    between atoms: _460  and  _462
REMARK  199  A    between atoms: _462  and  _463
REMARK  200  A    between atoms: _466  and  _468
REMARK  201  A    between atoms: _468  and  _469
REMARK  202  A    between atoms: _472  and  _474
REMARK  203  A    between atoms: _474  and  _475
REMARK  204  A    between atoms: _474  and  _477
REMARK  205  A    between atoms: _477  and  _478
REMARK  206  A    between atoms: _483  and  _485
REMARK  207  A    between atoms: _485  and  _486
REMARK  208  A    between atoms: _485  and  _488
REMARK  209  A    between atoms: _488  and  _489
REMARK  210  A    between atoms: _492  and  _494
REMARK  211  A    between atoms: _494  and  _495
REMARK  212  A    between atoms: _497  and  _499
REMARK  213  A    between atoms: _499  and  _500
REMARK  214  A    between atoms: _499  and  _502
REMARK  215  A    between atoms: _502  and  _503
REMARK  216  A    between atoms: _503  and  _504
REMARK  217  A    between atoms: _507  and  _509
REMARK  218  A    between atoms: _509  and  _510
REMARK  219  A    between atoms: _509  and  _512
REMARK  220  A    between atoms: _512  and  _513
REMARK  221  A    between atoms: _516  and  _518
REMARK  222  A    between atoms: _518  and  _519
REMARK  223  A    between atoms: _518  and  _521
REMARK  224  A    between atoms: _521  and  _522
REMARK  225  A    between atoms: _524  and  _526
REMARK  226  A    between atoms: _526  and  _527
REMARK  227  A    between atoms: _526  and  _529
REMARK  228  A    between atoms: _529  and  _530
REMARK  229  A    between atoms: _533  and  _535
REMARK  230  A    between atoms: _535  and  _536
REMARK  231  A    between atoms: _535  and  _538
REMARK  232  A    between atoms: _538  and  _539
REMARK  233  A    between atoms: _539  and  _540
REMARK  234  A    between atoms: _542  and  _544
REMARK  235  A    between atoms: _544  and  _545
REMARK  236  A    between atoms: _548  and  _550
REMARK  237  A    between atoms: _550  and  _551
REMARK  238  A    between atoms: _554  and  _556
REMARK  239  A    between atoms: _556  and  _557
REMARK  240  A    between atoms: _556  and  _559
REMARK  241  A    between atoms: _559  and  _560
REMARK  242  A    between atoms: _563  and  _565
REMARK  243  A    between atoms: _565  and  _566
REMARK  244  A    between atoms: _569  and  _571
REMARK  245  A    between atoms: _571  and  _572
REMARK                            x       y       z     vdW  Elec       q    Type
REMARK                         _______ _______ _______ _____ _____    ______ ____
ROOT
ATOM      1  O   HOH     1      82.552   4.491  -8.974  0.00  0.00    +0.000 OA
ENDROOT
TORSDOF 0
REMARK  Name = ../refined-set-2016/3ccz/3ccz_pocket.pdb
REMARK  245 active torsions:
REMARK  status: ('A' for Active; 'I' for Inactive)
REMARK    1  A    between atoms: _1  and  _3
REMARK    2  A    between atoms: _3  and  _4
REMARK    3  A    between atoms: _3  and  _6
REMARK    4  A    between atoms: _6  and  _7
REMARK    5  A    between atoms: _7  and  _8
REMARK    6  A    between atoms: _11  and  _13
REMARK    7  A    between atoms: _13  and  _14
REMARK    8  A    between atoms: _13  and  _16
REMARK    9  A    between atoms: _16  and  _17
REMARK   10  A    between atoms: _20  and  _22
REMARK   11  A    between atoms: _22  and  _23
REMARK   12  A    between atoms: _22  and  _25
REMARK   13  A    between atoms: _25  and  _26
REMARK   14  A    between atoms: _26  and  _27
REMARK   15  A    between atoms: _27  and  _28
REMARK   16  A    between atoms: _37  and  _39
REMARK   17  A    between atoms: _39  and  _40
REMARK   18  A    between atoms: _43  and  _44
REMARK   19  A    between atoms: _49  and  _51
REMARK   20  A    between atoms: _51  and  _52
REMARK   21  A    between atoms: _51  and  _54
REMARK   22  A    between atoms: _54  and  _55
REMARK   23  A    between atoms: _55  and  _56
REMARK   24  A    between atoms: _58  and  _60
REMARK   25  A    between atoms: _60  and  _61
REMARK   26  A    between atoms: _60  and  _63
REMARK   27  A    between atoms: _63  and  _64
REMARK   28  A    between atoms: _64  and  _65
REMARK   29  A    between atoms: _67  and  _69
REMARK   30  A    between atoms: _69  and  _70
REMARK   31  A    between atoms: _69  and  _72
REMARK   32  A    between atoms: _72  and  _73
REMARK   33  A    between atoms: _78  and  _80
REMARK   34  A    between atoms: _80  and  _81
REMARK   35  A    between atoms: _80  and  _83
REMARK   36  A    between atoms: _83  and  _84
REMARK   37  A    between atoms: _84  and  _85
REMARK   38  A    between atoms: _87  and  _89
REMARK   39  A    between atoms: _89  and  _90
REMARK   40  A    between atoms: _89  and  _92
REMARK   41  A    between atoms: _92  and  _93
REMARK   42  A    between atoms: _96  and  _98
REMARK   43  A    between atoms: _98  and  _99
REMARK   44  A    between atoms: _98  and  _101
REMARK   45  A    between atoms: _101  and  _102
REMARK   46  A    between atoms: _104  and  _106
REMARK   47  A    between atoms: _106  and  _107
REMARK   48  A    between atoms: _106  and  _109
REMARK   49  A    between atoms: _109  and  _110
REMARK   50  A    between atoms: _110  and  _111
REMARK   51  A    between atoms: _111  and  _112
REMARK   52  A    between atoms: _112  and  _113
REMARK   53  A    between atoms: _117  and  _119
REMARK   54  A    between atoms: _119  and  _120
REMARK   55  A    between atoms: _119  and  _122
REMARK   56  A    between atoms: _122  and  _123
REMARK   57  A    between atoms: _126  and  _128
REMARK   58  A    between atoms: _128  and  _129
REMARK   59  A    between atoms: _128  and  _131
REMARK   60  A    between atoms: _131  and  _132
REMARK   61  A    between atoms: _132  and  _133
REMARK   62  A    between atoms: _136  and  _138
REMARK   63  A    between atoms: _138  and  _139
REMARK   64  A    between atoms: _142  and  _144
REMARK   65  A    between atoms: _144  and  _145
REMARK   66  A    between atoms: _144  and  _147
REMARK   67  A    between atoms: _150  and  _152
REMARK   68  A    between atoms: _152  and  _153
REMARK   69  A    between atoms: _152  and  _155
REMARK   70  A    between atoms: _155  and  _156
REMARK   71  A    between atoms: _158  and  _160
REMARK   72  A    between atoms: _160  and  _161
REMARK   73  A    between atoms: _163  and  _165
REMARK   74  A    between atoms: _165  and  _166
REMARK   75  A    between atoms: _165  and  _168
REMARK   76  A    between atoms: _168  and  _169
REMARK   77  A    between atoms: _174  and  _176
REMARK   78  A    between atoms: _176  and  _177
REMARK   79  A    between atoms: _176  and  _179
REMARK   80  A    between atoms: _179  and  _180
REMARK   81  A    between atoms: _185  and  _186
REMARK   82  A    between atoms: _188  and  _190
REMARK   83  A    between atoms: _190  and  _191
REMARK   84  A    between atoms: _190  and  _193
REMARK   85  A    between atoms: _195  and  _197
REMARK   86  A    between atoms: _197  and  _198
REMARK   87  A    between atoms: _197  and  _200
REMARK   88  A    between atoms: _200  and  _201
REMARK   89  A    between atoms: _204  and  _206
REMARK   90  A    between atoms: _206  and  _207
REMARK   91  A    between atoms: _206  and  _209
REMARK   92  A    between atoms: _209  and  _210
REMARK   93  A    between atoms: _213  and  _215
REMARK   94  A    between atoms: _215  and  _216
REMARK   95  A    between atoms: _215  and  _218
REMARK   96  A    between atoms: _218  and  _219
REMARK   97  A    between atoms: _219  and  _220
REMARK   98  A    between atoms: _220  and  _221
REMARK   99  A    between atoms: _221  and  _222
REMARK  100  A    between atoms: _226  and  _228
REMARK  101  A    between atoms: _228  and  _229
REMARK  102  A    between atoms: _228  and  _231
REMARK  103  A    between atoms: _231  and  _232
REMARK  104  A    between atoms: _232  and  _233
REMARK  105  A    between atoms: _233  and  _234
REMARK  106  A    between atoms: _234  and  _235
REMARK  107  A    between atoms: _239  and  _241
REMARK  108  A    between atoms: _241  and  _242
REMARK  109  A    between atoms: _241  and  _244
REMARK  110  A    between atoms: _244  and  _245
REMARK  111  A    between atoms: _245  and  _246
REMARK  112  A    between atoms: _246  and  _247
REMARK  113  A    between atoms: _256  and  _258
REMARK  114  A    between atoms: _258  and  _259
REMARK  115  A    between atoms: _258  and  _261
REMARK  116  A    between atoms: _261  and  _262
REMARK  117  A    between atoms: _265  and  _267
REMARK  118  A    between atoms: _267  and  _268
REMARK  119  A    between atoms: _271  and  _273
REMARK  120  A    between atoms: _273  and  _274
REMARK  121  A    between atoms: _273  and  _276
REMARK  122  A    between atoms: _276  and  _277
REMARK  123  A    between atoms: _277  and  _278
REMARK  124  A    between atoms: _283  and  _285
REMARK  125  A    between atoms: _285  and  _286
REMARK  126  A    between atoms: _285  and  _288
REMARK  127  A    between atoms: _288  and  _289
REMARK  128  A    between atoms: _289  and  _290
REMARK  129  A    between atoms: _293  and  _295
REMARK  130  A    between atoms: _295  and  _296
REMARK  131  A    between atoms: _298  and  _300
REMARK  132  A    between atoms: _300  and  _301
REMARK  133  A    between atoms: _300  and  _303
REMARK  134  A    between atoms: _305  and  _307
REMARK  135  A    between atoms: _307  and  _308
REMARK  136  A    between atoms: _307  and  _310
REMARK  137  A    between atoms: _310  and  _311
REMARK  138  A    between atoms: _314  and  _316
REMARK  139  A    between atoms: _316  and  _317
REMARK  140  A    between atoms: _316  and  _319
REMARK  141  A    between atoms: _322  and  _324
REMARK  142  A    between atoms: _324  and  _325
REMARK  143  A    between atoms: _328  and  _330
REMARK  144  A    between atoms: _330  and  _331
REMARK  145  A    between atoms: _330  and  _333
REMARK  146  A    between atoms: _333  and  _334
REMARK  147  A    between atoms: _336  and  _338
REMARK  148  A    between atoms: _338  and  _339
REMARK  149  A    between atoms: _338  and  _341
REMARK  150  A    between atoms: _341  and  _342
REMARK  151  A    between atoms: _345  and  _347
REMARK  152  A    between atoms: _347  and  _348
REMARK  153  A    between atoms: _347  and  _350
REMARK  154  A    between atoms: _350  and  _351
REMARK  155  A    between atoms: _356  and  _358
REMARK  156  A    between atoms: _358  and  _359
REMARK  157  A    between atoms: _358  and  _361
REMARK  158  A    between atoms: _361  and  _362
REMARK  159  A    between atoms: _362  and  _363
REMARK  160  A    between atoms: _363  and  _364
REMARK  161  A    between atoms: _373  and  _375
REMARK  162  A    between atoms: _375  and  _376
REMARK  163  A    between atoms: _378  and  _380
REMARK  164  A    between atoms: _380  and  _381
REMARK  165  A    between atoms: _380  and  _383
REMARK  166  A    between atoms: _386  and  _388
REMARK  167  A    between atoms: _388  and  _389
REMARK  168  A    between atoms: _388  and  _391
REMARK  169  A    between atoms: _391  and  _392
REMARK  170  A    between atoms: _395  and  _397
REMARK  171  A    between atoms: _397  and  _398
REMARK  172  A    between atoms: _397  and  _400
REMARK  173  A    between atoms: _400  and  _401
REMARK  174  A    between atoms: _401  and  _402
REMARK  175  A    between atoms: _402  and  _403
REMARK  176  A    between atoms: _403  and  _404
REMARK  177  A    between atoms: _408  and  _410
REMARK  178  A    between atoms: _410  and  _411
REMARK  179  A    between atoms: _410  and  _413
REMARK  180  A    between atoms: _413  and  _414
REMARK  181  A    between atoms: _414  and  _415
REMARK  182  A    between atoms: _415  and  _416
REMARK  183  A    between atoms: _416  and  _417
REMARK  184  A    between atoms: _421  and  _423
REMARK  185  A    between atoms: _423  and  _424
REMARK  186  A    between atoms: _423  and  _426
REMARK  187  A    between atoms: _426  and  _427
REMARK  188  A    between atoms: _432  and  _434
REMARK  189  A    between atoms: _434  and  _435
REMARK  190  A    between atoms: _434  and  _437
REMARK  191  A    between atoms: _437  and  _438
REMARK  192  A    between atoms: _443  and  _445
REMARK  193  A    between atoms: _445  and  _446
REMARK  194  A    between atoms: _449  and  _451
REMARK  195  A    between atoms: _451  and  _452
REMARK  196  A    between atoms: _451  and  _454
REMARK  197  A    between atoms: _454  and  _455
REMARK  198  A    between atoms: _460  and  _462
REMARK  199  A    between atoms: _462  and  _463
REMARK  200  A    between atoms: _466  and  _468
REMARK  201  A    between atoms: _468  and  _469
REMARK  202  A    between atoms: _472  and  _474
REMARK  203  A    between atoms: _474  and  _475
REMARK  204  A    between atoms: _474  and  _477
REMARK  205  A    between atoms: _477  and  _478
REMARK  206  A    between atoms: _483  and  _485
REMARK  207  A    between atoms: _485  and  _486
REMARK  208  A    between atoms: _485  and  _488
REMARK  209  A    between atoms: _488  and  _489
REMARK  210  A    between atoms: _492  and  _494
REMARK  211  A    between atoms: _494  and  _495
REMARK  212  A    between atoms: _497  and  _499
REMARK  213  A    between atoms: _499  and  _500
REMARK  214  A    between atoms: _499  and  _502
REMARK  215  A    between atoms: _502  and  _503
REMARK  216  A    between atoms: _503  and  _504
REMARK  217  A    between atoms: _507  and  _509
REMARK  218  A    between atoms: _509  and  _510
REMARK  219  A    between atoms: _509  and  _512
REMARK  220  A    between atoms: _512  and  _513
REMARK  221  A    between atoms: _516  and  _518
REMARK  222  A    between atoms: _518  and  _519
REMARK  223  A    between atoms: _518  and  _521
REMARK  224  A    between atoms: _521  and  _522
REMARK  225  A    between atoms: _524  and  _526
REMARK  226  A    between atoms: _526  and  _527
REMARK  227  A    between atoms: _526  and  _529
REMARK  228  A    between atoms: _529  and  _530
REMARK  229  A    between atoms: _533  and  _535
REMARK  230  A    between atoms: _535  and  _536
REMARK  231  A    between atoms: _535  and  _538
REMARK  232  A    between atoms: _538  and  _539
REMARK  233  A    between atoms: _539  and  _540
REMARK  234  A    between atoms: _542  and  _544
REMARK  235  A    between atoms: _544  and  _545
REMARK  236  A    between atoms: _548  and  _550
REMARK  237  A    between atoms: _550  and  _551
REMARK  238  A    between atoms: _554  and  _556
REMARK  239  A    between atoms: _556  and  _557
REMARK  240  A    between atoms: _556  and  _559
REMARK  241  A    between atoms: _559  and  _560
REMARK  242  A    between atoms: _563  and  _565
REMARK  243  A    between atoms: _565  and  _566
REMARK  244  A    between atoms: _569  and  _571
REMARK  245  A    between atoms: _571  and  _572
REMARK                            x       y       z     vdW  Elec       q    Type
REMARK                         _______ _______ _______ _____ _____    ______ ____
ROOT
ATOM      1  O   HOH     1      72.222  10.428 -11.989  0.00  0.00    +0.000 OA
ENDROOT
TORSDOF 0
REMARK  Name = ../refined-set-2016/3ccz/3ccz_pocket.pdb
REMARK  245 active torsions:
REMARK  status: ('A' for Active; 'I' for Inactive)
REMARK    1  A    between atoms: _1  and  _3
REMARK    2  A    between atoms: _3  and  _4
REMARK    3  A    between atoms: _3  and  _6
REMARK    4  A    between atoms: _6  and  _7
REMARK    5  A    between atoms: _7  and  _8
REMARK    6  A    between atoms: _11  and  _13
REMARK    7  A    between atoms: _13  and  _14
REMARK    8  A    between atoms: _13  and  _16
REMARK    9  A    between atoms: _16  and  _17
REMARK   10  A    between atoms: _20  and  _22
REMARK   11  A    between atoms: _22  and  _23
REMARK   12  A    between atoms: _22  and  _25
REMARK   13  A    between atoms: _25  and  _26
REMARK   14  A    between atoms: _26  and  _27
REMARK   15  A    between atoms: _27  and  _28
REMARK   16  A    between atoms: _37  and  _39
REMARK   17  A    between atoms: _39  and  _40
REMARK   18  A    between atoms: _43  and  _44
REMARK   19  A    between atoms: _49  and  _51
REMARK   20  A    between atoms: _51  and  _52
REMARK   21  A    between atoms: _51  and  _54
REMARK   22  A    between atoms: _54  and  _55
REMARK   23  A    between atoms: _55  and  _56
REMARK   24  A    between atoms: _58  and  _60
REMARK   25  A    between atoms: _60  and  _61
REMARK   26  A    between atoms: _60  and  _63
REMARK   27  A    between atoms: _63  and  _64
REMARK   28  A    between atoms: _64  and  _65
REMARK   29  A    between atoms: _67  and  _69
REMARK   30  A    between atoms: _69  and  _70
REMARK   31  A    between atoms: _69  and  _72
REMARK   32  A    between atoms: _72  and  _73
REMARK   33  A    between atoms: _78  and  _80
REMARK   34  A    between atoms: _80  and  _81
REMARK   35  A    between atoms: _80  and  _83
REMARK   36  A    between atoms: _83  and  _84
REMARK   37  A    between atoms: _84  and  _85
REMARK   38  A    between atoms: _87  and  _89
REMARK   39  A    between atoms: _89  and  _90
REMARK   40  A    between atoms: _89  and  _92
REMARK   41  A    between atoms: _92  and  _93
REMARK   42  A    between atoms: _96  and  _98
REMARK   43  A    between atoms: _98  and  _99
REMARK   44  A    between atoms: _98  and  _101
REMARK   45  A    between atoms: _101  and  _102
REMARK   46  A    between atoms: _104  and  _106
REMARK   47  A    between atoms: _106  and  _107
REMARK   48  A    between atoms: _106  and  _109
REMARK   49  A    between atoms: _109  and  _110
REMARK   50  A    between atoms: _110  and  _111
REMARK   51  A    between atoms: _111  and  _112
REMARK   52  A    between atoms: _112  and  _113
REMARK   53  A    between atoms: _117  and  _119
REMARK   54  A    between atoms: _119  and  _120
REMARK   55  A    between atoms: _119  and  _122
REMARK   56  A    between atoms: _122  and  _123
REMARK   57  A    between atoms: _126  and  _128
REMARK   58  A    between atoms: _128  and  _129
REMARK   59  A    between atoms: _128  and  _131
REMARK   60  A    between atoms: _131  and  _132
REMARK   61  A    between atoms: _132  and  _133
REMARK   62  A    between atoms: _136  and  _138
REMARK   63  A    between atoms: _138  and  _139
REMARK   64  A    between atoms: _142  and  _144
REMARK   65  A    between atoms: _144  and  _145
REMARK   66  A    between atoms: _144  and  _147
REMARK   67  A    between atoms: _150  and  _152
REMARK   68  A    between atoms: _152  and  _153
REMARK   69  A    between atoms: _152  and  _155
REMARK   70  A    between atoms: _155  and  _156
REMARK   71  A    between atoms: _158  and  _160
REMARK   72  A    between atoms: _160  and  _161
REMARK   73  A    between atoms: _163  and  _165
REMARK   74  A    between atoms: _165  and  _166
REMARK   75  A    between atoms: _165  and  _168
REMARK   76  A    between atoms: _168  and  _169
REMARK   77  A    between atoms: _174  and  _176
REMARK   78  A    between atoms: _176  and  _177
REMARK   79  A    between atoms: _176  and  _179
REMARK   80  A    between atoms: _179  and  _180
REMARK   81  A    between atoms: _185  and  _186
REMARK   82  A    between atoms: _188  and  _190
REMARK   83  A    between atoms: _190  and  _191
REMARK   84  A    between atoms: _190  and  _193
REMARK   85  A    between atoms: _195  and  _197
REMARK   86  A    between atoms: _197  and  _198
REMARK   87  A    between atoms: _197  and  _200
REMARK   88  A    between atoms: _200  and  _201
REMARK   89  A    between atoms: _204  and  _206
REMARK   90  A    between atoms: _206  and  _207
REMARK   91  A    between atoms: _206  and  _209
REMARK   92  A    between atoms: _209  and  _210
REMARK   93  A    between atoms: _213  and  _215
REMARK   94  A    between atoms: _215  and  _216
REMARK   95  A    between atoms: _215  and  _218
REMARK   96  A    between atoms: _218  and  _219
REMARK   97  A    between atoms: _219  and  _220
REMARK   98  A    between atoms: _220  and  _221
REMARK   99  A    between atoms: _221  and  _222
REMARK  100  A    between atoms: _226  and  _228
REMARK  101  A    between atoms: _228  and  _229
REMARK  102  A    between atoms: _228  and  _231
REMARK  103  A    between atoms: _231  and  _232
REMARK  104  A    between atoms: _232  and  _233
REMARK  105  A    between atoms: _233  and  _234
REMARK  106  A    between atoms: _234  and  _235
REMARK  107  A    between atoms: _239  and  _241
REMARK  108  A    between atoms: _241  and  _242
REMARK  109  A    between atoms: _241  and  _244
REMARK  110  A    between atoms: _244  and  _245
REMARK  111  A    between atoms: _245  and  _246
REMARK  112  A    between atoms: _246  and  _247
REMARK  113  A    between atoms: _256  and  _258
REMARK  114  A    between atoms: _258  and  _259
REMARK  115  A    between atoms: _258  and  _261
REMARK  116  A    between atoms: _261  and  _262
REMARK  117  A    between atoms: _265  and  _267
REMARK  118  A    between atoms: _267  and  _268
REMARK  119  A    between atoms: _271  and  _273
REMARK  120  A    between atoms: _273  and  _274
REMARK  121  A    between atoms: _273  and  _276
REMARK  122  A    between atoms: _276  and  _277
REMARK  123  A    between atoms: _277  and  _278
REMARK  124  A    between atoms: _283  and  _285
REMARK  125  A    between atoms: _285  and  _286
REMARK  126  A    between atoms: _285  and  _288
REMARK  127  A    between atoms: _288  and  _289
REMARK  128  A    between atoms: _289  and  _290
REMARK  129  A    between atoms: _293  and  _295
REMARK  130  A    between atoms: _295  and  _296
REMARK  131  A    between atoms: _298  and  _300
REMARK  132  A    between atoms: _300  and  _301
REMARK  133  A    between atoms: _300  and  _303
REMARK  134  A    between atoms: _305  and  _307
REMARK  135  A    between atoms: _307  and  _308
REMARK  136  A    between atoms: _307  and  _310
REMARK  137  A    between atoms: _310  and  _311
REMARK  138  A    between atoms: _314  and  _316
REMARK  139  A    between atoms: _316  and  _317
REMARK  140  A    between atoms: _316  and  _319
REMARK  141  A    between atoms: _322  and  _324
REMARK  142  A    between atoms: _324  and  _325
REMARK  143  A    between atoms: _328  and  _330
REMARK  144  A    between atoms: _330  and  _331
REMARK  145  A    between atoms: _330  and  _333
REMARK  146  A    between atoms: _333  and  _334
REMARK  147  A    between atoms: _336  and  _338
REMARK  148  A    between atoms: _338  and  _339
REMARK  149  A    between atoms: _338  and  _341
REMARK  150  A    between atoms: _341  and  _342
REMARK  151  A    between atoms: _345  and  _347
REMARK  152  A    between atoms: _347  and  _348
REMARK  153  A    between atoms: _347  and  _350
REMARK  154  A    between atoms: _350  and  _351
REMARK  155  A    between atoms: _356  and  _358
REMARK  156  A    between atoms: _358  and  _359
REMARK  157  A    between atoms: _358  and  _361
REMARK  158  A    between atoms: _361  and  _362
REMARK  159  A    between atoms: _362  and  _363
REMARK  160  A    between atoms: _363  and  _364
REMARK  161  A    between atoms: _373  and  _375
REMARK  162  A    between atoms: _375  and  _376
REMARK  163  A    between atoms: _378  and  _380
REMARK  164  A    between atoms: _380  and  _381
REMARK  165  A    between atoms: _380  and  _383
REMARK  166  A    between atoms: _386  and  _388
REMARK  167  A    between atoms: _388  and  _389
REMARK  168  A    between atoms: _388  and  _391
REMARK  169  A    between atoms: _391  and  _392
REMARK  170  A    between atoms: _395  and  _397
REMARK  171  A    between atoms: _397  and  _398
REMARK  172  A    between atoms: _397  and  _400
REMARK  173  A    between atoms: _400  and  _401
REMARK  174  A    between atoms: _401  and  _402
REMARK  175  A    between atoms: _402  and  _403
REMARK  176  A    between atoms: _403  and  _404
REMARK  177  A    between atoms: _408  and  _410
REMARK  178  A    between atoms: _410  and  _411
REMARK  179  A    between atoms: _410  and  _413
REMARK  180  A    between atoms: _413  and  _414
REMARK  181  A    between atoms: _414  and  _415
REMARK  182  A    between atoms: _415  and  _416
REMARK  183  A    between atoms: _416  and  _417
REMARK  184  A    between atoms: _421  and  _423
REMARK  185  A    between atoms: _423  and  _424
REMARK  186  A    between atoms: _423  and  _426
REMARK  187  A    between atoms: _426  and  _427
REMARK  188  A    between atoms: _432  and  _434
REMARK  189  A    between atoms: _434  and  _435
REMARK  190  A    between atoms: _434  and  _437
REMARK  191  A    between atoms: _437  and  _438
REMARK  192  A    between atoms: _443  and  _445
REMARK  193  A    between atoms: _445  and  _446
REMARK  194  A    between atoms: _449  and  _451
REMARK  195  A    between atoms: _451  and  _452
REMARK  196  A    between atoms: _451  and  _454
REMARK  197  A    between atoms: _454  and  _455
REMARK  198  A    between atoms: _460  and  _462
REMARK  199  A    between atoms: _462  and  _463
REMARK  200  A    between atoms: _466  and  _468
REMARK  201  A    between atoms: _468  and  _469
REMARK  202  A    between atoms: _472  and  _474
REMARK  203  A    between atoms: _474  and  _475
REMARK  204  A    between atoms: _474  and  _477
REMARK  205  A    between atoms: _477  and  _478
REMARK  206  A    between atoms: _483  and  _485
REMARK  207  A    between atoms: _485  and  _486
REMARK  208  A    between atoms: _485  and  _488
REMARK  209  A    between atoms: _488  and  _489
REMARK  210  A    between atoms: _492  and  _494
REMARK  211  A    between atoms: _494  and  _495
REMARK  212  A    between atoms: _497  and  _499
REMARK  213  A    between atoms: _499  and  _500
REMARK  214  A    between atoms: _499  and  _502
REMARK  215  A    between atoms: _502  and  _503
REMARK  216  A    between atoms: _503  and  _504
REMARK  217  A    between atoms: _507  and  _509
REMARK  218  A    between atoms: _509  and  _510
REMARK  219  A    between atoms: _509  and  _512
REMARK  220  A    between atoms: _512  and  _513
REMARK  221  A    between atoms: _516  and  _518
REMARK  222  A    between atoms: _518  and  _519
REMARK  223  A    between atoms: _518  and  _521
REMARK  224  A    between atoms: _521  and  _522
REMARK  225  A    between atoms: _524  and  _526
REMARK  226  A    between atoms: _526  and  _527
REMARK  227  A    between atoms: _526  and  _529
REMARK  228  A    between atoms: _529  and  _530
REMARK  229  A    between atoms: _533  and  _535
REMARK  230  A    between atoms: _535  and  _536
REMARK  231  A    between atoms: _535  and  _538
REMARK  232  A    between atoms: _538  and  _539
REMARK  233  A    between atoms: _539  and  _540
REMARK  234  A    between atoms: _542  and  _544
REMARK  235  A    between atoms: _544  and  _545
REMARK  236  A    between atoms: _548  and  _550
REMARK  237  A    between atoms: _550  and  _551
REMARK  238  A    between atoms: _554  and  _556
REMARK  239  A    between atoms: _556  and  _557
REMARK  240  A    between atoms: _556  and  _559
REMARK  241  A    between atoms: _559  and  _560
REMARK  242  A    between atoms: _563  and  _565
REMARK  243  A    between atoms: _565  and  _566
REMARK  244  A    between atoms: _569  and  _571
REMARK  245  A    between atoms: _571  and  _572
REMARK                            x       y       z     vdW  Elec       q    Type
REMARK                         _______ _______ _______ _____ _____    ______ ____
ROOT
ATOM      1  O   HOH     1      82.228  19.716 -10.529  0.00  0.00    +0.000 OA
ENDROOT
TORSDOF 0
