REMARK  Name = ../refined-set-2016/4avs/4avs_pocket.pdb
REMARK  117 active torsions:
REMARK  status: ('A' for Active; 'I' for Inactive)
REMARK    1  A    between atoms: _1  and  _3
REMARK    2  A    between atoms: _3  and  _4
REMARK    3  A    between atoms: _7  and  _9
REMARK    4  A    between atoms: _9  and  _10
REMARK    5  A    between atoms: _9  and  _12
REMARK    6  A    between atoms: _12  and  _13
REMARK    7  A    between atoms: _18  and  _19
REMARK    8  A    between atoms: _21  and  _23
REMARK    9  A    between atoms: _23  and  _24
REMARK   10  A    between atoms: _23  and  _26
REMARK   11  A    between atoms: _26  and  _27
REMARK   12  A    between atoms: _29  and  _31
REMARK   13  A    between atoms: _31  and  _32
REMARK   14  A    between atoms: _31  and  _34
REMARK   15  A    between atoms: _34  and  _35
REMARK   16  A    between atoms: _37  and  _39
REMARK   17  A    between atoms: _39  and  _40
REMARK   18  A    between atoms: _39  and  _42
REMARK   19  A    between atoms: _42  and  _43
REMARK   20  A    between atoms: _48  and  _50
REMARK   21  A    between atoms: _50  and  _51
REMARK   22  A    between atoms: _50  and  _53
REMARK   23  A    between atoms: _53  and  _54
REMARK   24  A    between atoms: _57  and  _59
REMARK   25  A    between atoms: _59  and  _60
REMARK   26  A    between atoms: _59  and  _62
REMARK   27  A    between atoms: _62  and  _63
REMARK   28  A    between atoms: _68  and  _70
REMARK   29  A    between atoms: _70  and  _71
REMARK   30  A    between atoms: _70  and  _73
REMARK   31  A    between atoms: _73  and  _74
REMARK   32  A    between atoms: _77  and  _79
REMARK   33  A    between atoms: _79  and  _80
REMARK   34  A    between atoms: _79  and  _82
REMARK   35  A    between atoms: _85  and  _87
REMARK   36  A    between atoms: _87  and  _88
REMARK   37  A    between atoms: _87  and  _90
REMARK   38  A    between atoms: _90  and  _91
REMARK   39  A    between atoms: _96  and  _97
REMARK   40  A    between atoms: _99  and  _101
REMARK   41  A    between atoms: _101  and  _102
REMARK   42  A    between atoms: _101  and  _104
REMARK   43  A    between atoms: _104  and  _105
REMARK   44  A    between atoms: _105  and  _106
REMARK   45  A    between atoms: _106  and  _107
REMARK   46  A    between atoms: _107  and  _108
REMARK   47  A    between atoms: _112  and  _114
REMARK   48  A    between atoms: _114  and  _115
REMARK   49  A    between atoms: _114  and  _117
REMARK   50  A    between atoms: _117  and  _118
REMARK   51  A    between atoms: _118  and  _119
REMARK   52  A    between atoms: _122  and  _124
REMARK   53  A    between atoms: _124  and  _125
REMARK   54  A    between atoms: _124  and  _127
REMARK   55  A    between atoms: _127  and  _128
REMARK   56  A    between atoms: _130  and  _132
REMARK   57  A    between atoms: _132  and  _133
REMARK   58  A    between atoms: _132  and  _135
REMARK   59  A    between atoms: _135  and  _136
REMARK   60  A    between atoms: _141  and  _142
REMARK   61  A    between atoms: _144  and  _146
REMARK   62  A    between atoms: _146  and  _147
REMARK   63  A    between atoms: _146  and  _149
REMARK   64  A    between atoms: _149  and  _150
REMARK   65  A    between atoms: _150  and  _151
REMARK   66  A    between atoms: _151  and  _152
REMARK   67  A    between atoms: _161  and  _163
REMARK   68  A    between atoms: _163  and  _164
REMARK   69  A    between atoms: _163  and  _166
REMARK   70  A    between atoms: _166  and  _167
REMARK   71  A    between atoms: _172  and  _174
REMARK   72  A    between atoms: _174  and  _175
REMARK   73  A    between atoms: _174  and  _177
REMARK   74  A    between atoms: _177  and  _178
REMARK   75  A    between atoms: _178  and  _179
REMARK   76  A    between atoms: _179  and  _180
REMARK   77  A    between atoms: _180  and  _181
REMARK   78  A    between atoms: _185  and  _187
REMARK   79  A    between atoms: _187  and  _188
REMARK   80  A    between atoms: _187  and  _190
REMARK   81  A    between atoms: _190  and  _191
REMARK   82  A    between atoms: _191  and  _192
REMARK   83  A    between atoms: _192  and  _193
REMARK   84  A    between atoms: _193  and  CA_271
REMARK   85  A    between atoms: _195  and  _197
REMARK   86  A    between atoms: _197  and  _198
REMARK   87  A    between atoms: _197  and  _200
REMARK   88  A    between atoms: _200  and  _201
REMARK   89  A    between atoms: _201  and  _202
REMARK   90  A    between atoms: _209  and  _210
REMARK   91  A    between atoms: _216  and  _218
REMARK   92  A    between atoms: _218  and  _219
REMARK   93  A    between atoms: _218  and  _221
REMARK   94  A    between atoms: _221  and  _222
REMARK   95  A    between atoms: _222  and  _223
REMARK   96  A    between atoms: _223  and  _224
REMARK   97  A    between atoms: _224  and  _225
REMARK   98  A    between atoms: _229  and  _231
REMARK   99  A    between atoms: _231  and  _232
REMARK  100  A    between atoms: _231  and  _234
REMARK  101  A    between atoms: _234  and  _235
REMARK  102  A    between atoms: _241  and  _243
REMARK  103  A    between atoms: _243  and  _244
REMARK  104  A    between atoms: _243  and  _246
REMARK  105  A    between atoms: _246  and  _247
REMARK  106  A    between atoms: _250  and  _252
REMARK  107  A    between atoms: _252  and  _253
REMARK  108  A    between atoms: _252  and  _255
REMARK  109  A    between atoms: _255  and  _256
REMARK  110  A    between atoms: _258  and  _260
REMARK  111  A    between atoms: _260  and  _261
REMARK  112  A    between atoms: _260  and  _263
REMARK  113  A    between atoms: _263  and  _264
REMARK  114  A    between atoms: _264  and  _265
REMARK  115  A    between atoms: _265  and  _266
REMARK  116  A    between atoms: _265  and  _267
REMARK  117  A    between atoms: _266  and  CA_271
REMARK                            x       y       z     vdW  Elec       q    Type
REMARK                         _______ _______ _______ _____ _____    ______ ____
ROOT
ATOM      1  CA  TYR A   2      12.350  10.628  50.259  0.00  0.00    +0.153 C 
ENDROOT
BRANCH   1   3
ATOM      2  C   ALA A   1      13.170  12.061  48.481  0.00  0.00    +0.238 C 
ATOM      3  N   TYR A   2      13.343  10.999  49.257  0.00  0.00    -0.297 N 
ATOM      4  H   TYR A   2      14.201  10.421  49.149  0.00  0.00    +0.150 HD
ATOM      5  O   ALA A   1      12.141  12.751  48.492  0.00  0.00    -0.274 OA
BRANCH   2   6
ATOM      6  CA  ALA A   1      14.331  12.398  47.561  0.00  0.00    +0.145 C 
ATOM      7  CB  ALA A   1      15.330  13.291  48.295  0.00  0.00    +0.028 C 
BRANCH   6   8
ATOM      8  N   ALA A   1      13.865  13.075  46.368  0.00  0.00    -0.238 NA
ATOM      9  H   ALA A   1      14.090  14.083  46.242  0.00  0.00    +0.142 HD
ENDBRANCH   6   8
ENDBRANCH   2   6
ENDBRANCH   1   3
BRANCH   1  10
ATOM     10  C   TYR A   2      12.929   9.767  51.349  0.00  0.00    +0.241 C 
ATOM     11  N   SER A   3      12.270   9.819  52.501  0.00  0.00    -0.296 N 
ATOM     12  H   SER A   3      11.485  10.494  52.595  0.00  0.00    +0.150 HD
ATOM     13  O   TYR A   2      13.900   9.057  51.145  0.00  0.00    -0.273 OA
BRANCH  11  14
ATOM     14  CA  SER A   3      12.595   8.983  53.622  0.00  0.00    +0.166 C 
BRANCH  14  15
ATOM     15  CB  SER A   3      11.899   7.631  53.508  0.00  0.00    +0.229 C 
ATOM     16  OG  SER A   3      10.717   7.558  53.220  0.00  0.00    -0.286 OA
ENDBRANCH  14  15
BRANCH  14  17
ATOM     17  C   SER A   3      12.137   9.673  54.898  0.00  0.00    +0.165 C 
BRANCH  17  18
ATOM     18  O   SER A   3      12.470   8.897  56.013  0.00  0.00    -0.380 OA
ATOM     19  H   SER A   3      12.026   8.015  55.944  0.00  0.00    +0.211 HD
ENDBRANCH  17  18
ENDBRANCH  14  17
ENDBRANCH  11  14
ENDBRANCH   1  10
BRANCH   1  20
ATOM     20  CB  TYR A   2      11.150   9.923  49.632  0.00  0.00    +0.055 C 
BRANCH  20  21
ATOM     21  CG  TYR A   2      11.434   8.724  48.741  0.00  0.00    -0.020 A 
ATOM     22  CD2 TYR A   2      11.574   7.440  49.270  0.00  0.00    -0.001 A 
ATOM     23  CE2 TYR A   2      11.807   6.348  48.438  0.00  0.00    +0.036 A 
ATOM     24  CZ  TYR A   2      11.914   6.539  47.084  0.00  0.00    +0.134 A 
ATOM     25  CE1 TYR A   2      11.789   7.801  46.536  0.00  0.00    +0.036 A 
ATOM     26  CD1 TYR A   2      11.566   8.878  47.361  0.00  0.00    -0.001 A 
BRANCH  24  27
ATOM     27  OH  TYR A   2      12.105   5.462  46.247  0.00  0.00    -0.506 OA
ATOM     28  HH  TYR A   2      12.175   4.635  46.786  0.00  0.00    +0.292 HD
ENDBRANCH  24  27
ENDBRANCH  20  21
ENDBRANCH   1  20
TORSDOF 11
REMARK  Name = ../refined-set-2016/4avs/4avs_pocket.pdb
REMARK  117 active torsions:
REMARK  status: ('A' for Active; 'I' for Inactive)
REMARK    1  A    between atoms: _1  and  _3
REMARK    2  A    between atoms: _3  and  _4
REMARK    3  A    between atoms: _7  and  _9
REMARK    4  A    between atoms: _9  and  _10
REMARK    5  A    between atoms: _9  and  _12
REMARK    6  A    between atoms: _12  and  _13
REMARK    7  A    between atoms: _18  and  _19
REMARK    8  A    between atoms: _21  and  _23
REMARK    9  A    between atoms: _23  and  _24
REMARK   10  A    between atoms: _23  and  _26
REMARK   11  A    between atoms: _26  and  _27
REMARK   12  A    between atoms: _29  and  _31
REMARK   13  A    between atoms: _31  and  _32
REMARK   14  A    between atoms: _31  and  _34
REMARK   15  A    between atoms: _34  and  _35
REMARK   16  A    between atoms: _37  and  _39
REMARK   17  A    between atoms: _39  and  _40
REMARK   18  A    between atoms: _39  and  _42
REMARK   19  A    between atoms: _42  and  _43
REMARK   20  A    between atoms: _48  and  _50
REMARK   21  A    between atoms: _50  and  _51
REMARK   22  A    between atoms: _50  and  _53
REMARK   23  A    between atoms: _53  and  _54
REMARK   24  A    between atoms: _57  and  _59
REMARK   25  A    between atoms: _59  and  _60
REMARK   26  A    between atoms: _59  and  _62
REMARK   27  A    between atoms: _62  and  _63
REMARK   28  A    between atoms: _68  and  _70
REMARK   29  A    between atoms: _70  and  _71
REMARK   30  A    between atoms: _70  and  _73
REMARK   31  A    between atoms: _73  and  _74
REMARK   32  A    between atoms: _77  and  _79
REMARK   33  A    between atoms: _79  and  _80
REMARK   34  A    between atoms: _79  and  _82
REMARK   35  A    between atoms: _85  and  _87
REMARK   36  A    between atoms: _87  and  _88
REMARK   37  A    between atoms: _87  and  _90
REMARK   38  A    between atoms: _90  and  _91
REMARK   39  A    between atoms: _96  and  _97
REMARK   40  A    between atoms: _99  and  _101
REMARK   41  A    between atoms: _101  and  _102
REMARK   42  A    between atoms: _101  and  _104
REMARK   43  A    between atoms: _104  and  _105
REMARK   44  A    between atoms: _105  and  _106
REMARK   45  A    between atoms: _106  and  _107
REMARK   46  A    between atoms: _107  and  _108
REMARK   47  A    between atoms: _112  and  _114
REMARK   48  A    between atoms: _114  and  _115
REMARK   49  A    between atoms: _114  and  _117
REMARK   50  A    between atoms: _117  and  _118
REMARK   51  A    between atoms: _118  and  _119
REMARK   52  A    between atoms: _122  and  _124
REMARK   53  A    between atoms: _124  and  _125
REMARK   54  A    between atoms: _124  and  _127
REMARK   55  A    between atoms: _127  and  _128
REMARK   56  A    between atoms: _130  and  _132
REMARK   57  A    between atoms: _132  and  _133
REMARK   58  A    between atoms: _132  and  _135
REMARK   59  A    between atoms: _135  and  _136
REMARK   60  A    between atoms: _141  and  _142
REMARK   61  A    between atoms: _144  and  _146
REMARK   62  A    between atoms: _146  and  _147
REMARK   63  A    between atoms: _146  and  _149
REMARK   64  A    between atoms: _149  and  _150
REMARK   65  A    between atoms: _150  and  _151
REMARK   66  A    between atoms: _151  and  _152
REMARK   67  A    between atoms: _161  and  _163
REMARK   68  A    between atoms: _163  and  _164
REMARK   69  A    between atoms: _163  and  _166
REMARK   70  A    between atoms: _166  and  _167
REMARK   71  A    between atoms: _172  and  _174
REMARK   72  A    between atoms: _174  and  _175
REMARK   73  A    between atoms: _174  and  _177
REMARK   74  A    between atoms: _177  and  _178
REMARK   75  A    between atoms: _178  and  _179
REMARK   76  A    between atoms: _179  and  _180
REMARK   77  A    between atoms: _180  and  _181
REMARK   78  A    between atoms: _185  and  _187
REMARK   79  A    between atoms: _187  and  _188
REMARK   80  A    between atoms: _187  and  _190
REMARK   81  A    between atoms: _190  and  _191
REMARK   82  A    between atoms: _191  and  _192
REMARK   83  A    between atoms: _192  and  _193
REMARK   84  A    between atoms: _193  and  CA_271
REMARK   85  A    between atoms: _195  and  _197
REMARK   86  A    between atoms: _197  and  _198
REMARK   87  A    between atoms: _197  and  _200
REMARK   88  A    between atoms: _200  and  _201
REMARK   89  A    between atoms: _201  and  _202
REMARK   90  A    between atoms: _209  and  _210
REMARK   91  A    between atoms: _216  and  _218
REMARK   92  A    between atoms: _218  and  _219
REMARK   93  A    between atoms: _218  and  _221
REMARK   94  A    between atoms: _221  and  _222
REMARK   95  A    between atoms: _222  and  _223
REMARK   96  A    between atoms: _223  and  _224
REMARK   97  A    between atoms: _224  and  _225
REMARK   98  A    between atoms: _229  and  _231
REMARK   99  A    between atoms: _231  and  _232
REMARK  100  A    between atoms: _231  and  _234
REMARK  101  A    between atoms: _234  and  _235
REMARK  102  A    between atoms: _241  and  _243
REMARK  103  A    between atoms: _243  and  _244
REMARK  104  A    between atoms: _243  and  _246
REMARK  105  A    between atoms: _246  and  _247
REMARK  106  A    between atoms: _250  and  _252
REMARK  107  A    between atoms: _252  and  _253
REMARK  108  A    between atoms: _252  and  _255
REMARK  109  A    between atoms: _255  and  _256
REMARK  110  A    between atoms: _258  and  _260
REMARK  111  A    between atoms: _260  and  _261
REMARK  112  A    between atoms: _260  and  _263
REMARK  113  A    between atoms: _263  and  _264
REMARK  114  A    between atoms: _264  and  _265
REMARK  115  A    between atoms: _265  and  _266
REMARK  116  A    between atoms: _265  and  _267
REMARK  117  A    between atoms: _266  and  CA_271
REMARK                            x       y       z     vdW  Elec       q    Type
REMARK                         _______ _______ _______ _____ _____    ______ ____
ROOT
ATOM      1  CA  SER A   1      12.704   7.387  60.227  0.00  0.00    +0.163 C 
ENDROOT
BRANCH   1   2
ATOM      2  N   SER A   1      12.283   6.268  59.399  0.00  0.00    -0.237 NA
ATOM      3  H   SER A   1      11.312   5.909  59.498  0.00  0.00    +0.142 HD
ENDBRANCH   1   2
BRANCH   1   4
ATOM      4  C   SER A   1      12.597   7.014  61.703  0.00  0.00    +0.227 C 
ATOM      5  O   SER A   1      11.507   6.716  62.206  0.00  0.00    -0.287 OA
ENDBRANCH   1   4
BRANCH   1   6
ATOM      6  CB  SER A   1      11.834   8.607  59.876  0.00  0.00    +0.162 C 
BRANCH   6   7
ATOM      7  OG  SER A   1      12.042   9.710  60.753  0.00  0.00    -0.380 OA
ATOM      8  H   SER A   1      12.990   9.993  60.707  0.00  0.00    +0.211 HD
ENDBRANCH   6   7
ENDBRANCH   1   6
TORSDOF 4
REMARK  Name = ../refined-set-2016/4avs/4avs_pocket.pdb
REMARK  117 active torsions:
REMARK  status: ('A' for Active; 'I' for Inactive)
REMARK    1  A    between atoms: _1  and  _3
REMARK    2  A    between atoms: _3  and  _4
REMARK    3  A    between atoms: _7  and  _9
REMARK    4  A    between atoms: _9  and  _10
REMARK    5  A    between atoms: _9  and  _12
REMARK    6  A    between atoms: _12  and  _13
REMARK    7  A    between atoms: _18  and  _19
REMARK    8  A    between atoms: _21  and  _23
REMARK    9  A    between atoms: _23  and  _24
REMARK   10  A    between atoms: _23  and  _26
REMARK   11  A    between atoms: _26  and  _27
REMARK   12  A    between atoms: _29  and  _31
REMARK   13  A    between atoms: _31  and  _32
REMARK   14  A    between atoms: _31  and  _34
REMARK   15  A    between atoms: _34  and  _35
REMARK   16  A    between atoms: _37  and  _39
REMARK   17  A    between atoms: _39  and  _40
REMARK   18  A    between atoms: _39  and  _42
REMARK   19  A    between atoms: _42  and  _43
REMARK   20  A    between atoms: _48  and  _50
REMARK   21  A    between atoms: _50  and  _51
REMARK   22  A    between atoms: _50  and  _53
REMARK   23  A    between atoms: _53  and  _54
REMARK   24  A    between atoms: _57  and  _59
REMARK   25  A    between atoms: _59  and  _60
REMARK   26  A    between atoms: _59  and  _62
REMARK   27  A    between atoms: _62  and  _63
REMARK   28  A    between atoms: _68  and  _70
REMARK   29  A    between atoms: _70  and  _71
REMARK   30  A    between atoms: _70  and  _73
REMARK   31  A    between atoms: _73  and  _74
REMARK   32  A    between atoms: _77  and  _79
REMARK   33  A    between atoms: _79  and  _80
REMARK   34  A    between atoms: _79  and  _82
REMARK   35  A    between atoms: _85  and  _87
REMARK   36  A    between atoms: _87  and  _88
REMARK   37  A    between atoms: _87  and  _90
REMARK   38  A    between atoms: _90  and  _91
REMARK   39  A    between atoms: _96  and  _97
REMARK   40  A    between atoms: _99  and  _101
REMARK   41  A    between atoms: _101  and  _102
REMARK   42  A    between atoms: _101  and  _104
REMARK   43  A    between atoms: _104  and  _105
REMARK   44  A    between atoms: _105  and  _106
REMARK   45  A    between atoms: _106  and  _107
REMARK   46  A    between atoms: _107  and  _108
REMARK   47  A    between atoms: _112  and  _114
REMARK   48  A    between atoms: _114  and  _115
REMARK   49  A    between atoms: _114  and  _117
REMARK   50  A    between atoms: _117  and  _118
REMARK   51  A    between atoms: _118  and  _119
REMARK   52  A    between atoms: _122  and  _124
REMARK   53  A    between atoms: _124  and  _125
REMARK   54  A    between atoms: _124  and  _127
REMARK   55  A    between atoms: _127  and  _128
REMARK   56  A    between atoms: _130  and  _132
REMARK   57  A    between atoms: _132  and  _133
REMARK   58  A    between atoms: _132  and  _135
REMARK   59  A    between atoms: _135  and  _136
REMARK   60  A    between atoms: _141  and  _142
REMARK   61  A    between atoms: _144  and  _146
REMARK   62  A    between atoms: _146  and  _147
REMARK   63  A    between atoms: _146  and  _149
REMARK   64  A    between atoms: _149  and  _150
REMARK   65  A    between atoms: _150  and  _151
REMARK   66  A    between atoms: _151  and  _152
REMARK   67  A    between atoms: _161  and  _163
REMARK   68  A    between atoms: _163  and  _164
REMARK   69  A    between atoms: _163  and  _166
REMARK   70  A    between atoms: _166  and  _167
REMARK   71  A    between atoms: _172  and  _174
REMARK   72  A    between atoms: _174  and  _175
REMARK   73  A    between atoms: _174  and  _177
REMARK   74  A    between atoms: _177  and  _178
REMARK   75  A    between atoms: _178  and  _179
REMARK   76  A    between atoms: _179  and  _180
REMARK   77  A    between atoms: _180  and  _181
REMARK   78  A    between atoms: _185  and  _187
REMARK   79  A    between atoms: _187  and  _188
REMARK   80  A    between atoms: _187  and  _190
REMARK   81  A    between atoms: _190  and  _191
REMARK   82  A    between atoms: _191  and  _192
REMARK   83  A    between atoms: _192  and  _193
REMARK   84  A    between atoms: _193  and  CA_271
REMARK   85  A    between atoms: _195  and  _197
REMARK   86  A    between atoms: _197  and  _198
REMARK   87  A    between atoms: _197  and  _200
REMARK   88  A    between atoms: _200  and  _201
REMARK   89  A    between atoms: _201  and  _202
REMARK   90  A    between atoms: _209  and  _210
REMARK   91  A    between atoms: _216  and  _218
REMARK   92  A    between atoms: _218  and  _219
REMARK   93  A    between atoms: _218  and  _221
REMARK   94  A    between atoms: _221  and  _222
REMARK   95  A    between atoms: _222  and  _223
REMARK   96  A    between atoms: _223  and  _224
REMARK   97  A    between atoms: _224  and  _225
REMARK   98  A    between atoms: _229  and  _231
REMARK   99  A    between atoms: _231  and  _232
REMARK  100  A    between atoms: _231  and  _234
REMARK  101  A    between atoms: _234  and  _235
REMARK  102  A    between atoms: _241  and  _243
REMARK  103  A    between atoms: _243  and  _244
REMARK  104  A    between atoms: _243  and  _246
REMARK  105  A    between atoms: _246  and  _247
REMARK  106  A    between atoms: _250  and  _252
REMARK  107  A    between atoms: _252  and  _253
REMARK  108  A    between atoms: _252  and  _255
REMARK  109  A    between atoms: _255  and  _256
REMARK  110  A    between atoms: _258  and  _260
REMARK  111  A    between atoms: _260  and  _261
REMARK  112  A    between atoms: _260  and  _263
REMARK  113  A    between atoms: _263  and  _264
REMARK  114  A    between atoms: _264  and  _265
REMARK  115  A    between atoms: _265  and  _266
REMARK  116  A    between atoms: _265  and  _267
REMARK  117  A    between atoms: _266  and  CA_271
REMARK                            x       y       z     vdW  Elec       q    Type
REMARK                         _______ _______ _______ _____ _____    ______ ____
ROOT
ATOM      1  CB  ASN A   1      13.375  10.948  65.819  0.00  0.00    +0.110 C 
ENDROOT
BRANCH   1   2
ATOM      2  CG  ASN A   1      13.906  11.686  64.627  0.00  0.00    +0.221 C 
ATOM      3  ND2 ASN A   1      13.500  12.944  64.469  0.00  0.00    -0.329 N 
ATOM      4 HD21 ASN A   1      12.831  13.364  65.146  0.00  0.00    +0.145 HD
ATOM      5 HD22 ASN A   1      13.852  13.507  63.668  0.00  0.00    +0.145 HD
ATOM      6  OD1 ASN A   1      14.695  11.140  63.857  0.00  0.00    -0.275 OA
ENDBRANCH   1   2
BRANCH   1   7
ATOM      7  CA  ASN A   1      14.176   9.679  66.132  0.00  0.00    +0.142 C 
BRANCH   7   8
ATOM      8  N   ASN A   1      13.703   8.559  65.319  0.00  0.00    -0.239 NA
ATOM      9  H   ASN A   1      12.692   8.317  65.355  0.00  0.00    +0.142 HD
ENDBRANCH   7   8
BRANCH   7  10
ATOM     10  C   ASN A   1      14.015   9.356  67.600  0.00  0.00    +0.225 C 
ATOM     11  O   ASN A   1      13.136   8.591  67.975  0.00  0.00    -0.287 OA
ENDBRANCH   7  10
ENDBRANCH   1   7
TORSDOF 4
REMARK  Name = ../refined-set-2016/4avs/4avs_pocket.pdb
REMARK  117 active torsions:
REMARK  status: ('A' for Active; 'I' for Inactive)
REMARK    1  A    between atoms: _1  and  _3
REMARK    2  A    between atoms: _3  and  _4
REMARK    3  A    between atoms: _7  and  _9
REMARK    4  A    between atoms: _9  and  _10
REMARK    5  A    between atoms: _9  and  _12
REMARK    6  A    between atoms: _12  and  _13
REMARK    7  A    between atoms: _18  and  _19
REMARK    8  A    between atoms: _21  and  _23
REMARK    9  A    between atoms: _23  and  _24
REMARK   10  A    between atoms: _23  and  _26
REMARK   11  A    between atoms: _26  and  _27
REMARK   12  A    between atoms: _29  and  _31
REMARK   13  A    between atoms: _31  and  _32
REMARK   14  A    between atoms: _31  and  _34
REMARK   15  A    between atoms: _34  and  _35
REMARK   16  A    between atoms: _37  and  _39
REMARK   17  A    between atoms: _39  and  _40
REMARK   18  A    between atoms: _39  and  _42
REMARK   19  A    between atoms: _42  and  _43
REMARK   20  A    between atoms: _48  and  _50
REMARK   21  A    between atoms: _50  and  _51
REMARK   22  A    between atoms: _50  and  _53
REMARK   23  A    between atoms: _53  and  _54
REMARK   24  A    between atoms: _57  and  _59
REMARK   25  A    between atoms: _59  and  _60
REMARK   26  A    between atoms: _59  and  _62
REMARK   27  A    between atoms: _62  and  _63
REMARK   28  A    between atoms: _68  and  _70
REMARK   29  A    between atoms: _70  and  _71
REMARK   30  A    between atoms: _70  and  _73
REMARK   31  A    between atoms: _73  and  _74
REMARK   32  A    between atoms: _77  and  _79
REMARK   33  A    between atoms: _79  and  _80
REMARK   34  A    between atoms: _79  and  _82
REMARK   35  A    between atoms: _85  and  _87
REMARK   36  A    between atoms: _87  and  _88
REMARK   37  A    between atoms: _87  and  _90
REMARK   38  A    between atoms: _90  and  _91
REMARK   39  A    between atoms: _96  and  _97
REMARK   40  A    between atoms: _99  and  _101
REMARK   41  A    between atoms: _101  and  _102
REMARK   42  A    between atoms: _101  and  _104
REMARK   43  A    between atoms: _104  and  _105
REMARK   44  A    between atoms: _105  and  _106
REMARK   45  A    between atoms: _106  and  _107
REMARK   46  A    between atoms: _107  and  _108
REMARK   47  A    between atoms: _112  and  _114
REMARK   48  A    between atoms: _114  and  _115
REMARK   49  A    between atoms: _114  and  _117
REMARK   50  A    between atoms: _117  and  _118
REMARK   51  A    between atoms: _118  and  _119
REMARK   52  A    between atoms: _122  and  _124
REMARK   53  A    between atoms: _124  and  _125
REMARK   54  A    between atoms: _124  and  _127
REMARK   55  A    between atoms: _127  and  _128
REMARK   56  A    between atoms: _130  and  _132
REMARK   57  A    between atoms: _132  and  _133
REMARK   58  A    between atoms: _132  and  _135
REMARK   59  A    between atoms: _135  and  _136
REMARK   60  A    between atoms: _141  and  _142
REMARK   61  A    between atoms: _144  and  _146
REMARK   62  A    between atoms: _146  and  _147
REMARK   63  A    between atoms: _146  and  _149
REMARK   64  A    between atoms: _149  and  _150
REMARK   65  A    between atoms: _150  and  _151
REMARK   66  A    between atoms: _151  and  _152
REMARK   67  A    between atoms: _161  and  _163
REMARK   68  A    between atoms: _163  and  _164
REMARK   69  A    between atoms: _163  and  _166
REMARK   70  A    between atoms: _166  and  _167
REMARK   71  A    between atoms: _172  and  _174
REMARK   72  A    between atoms: _174  and  _175
REMARK   73  A    between atoms: _174  and  _177
REMARK   74  A    between atoms: _177  and  _178
REMARK   75  A    between atoms: _178  and  _179
REMARK   76  A    between atoms: _179  and  _180
REMARK   77  A    between atoms: _180  and  _181
REMARK   78  A    between atoms: _185  and  _187
REMARK   79  A    between atoms: _187  and  _188
REMARK   80  A    between atoms: _187  and  _190
REMARK   81  A    between atoms: _190  and  _191
REMARK   82  A    between atoms: _191  and  _192
REMARK   83  A    between atoms: _192  and  _193
REMARK   84  A    between atoms: _193  and  CA_271
REMARK   85  A    between atoms: _195  and  _197
REMARK   86  A    between atoms: _197  and  _198
REMARK   87  A    between atoms: _197  and  _200
REMARK   88  A    between atoms: _200  and  _201
REMARK   89  A    between atoms: _201  and  _202
REMARK   90  A    between atoms: _209  and  _210
REMARK   91  A    between atoms: _216  and  _218
REMARK   92  A    between atoms: _218  and  _219
REMARK   93  A    between atoms: _218  and  _221
REMARK   94  A    between atoms: _221  and  _222
REMARK   95  A    between atoms: _222  and  _223
REMARK   96  A    between atoms: _223  and  _224
REMARK   97  A    between atoms: _224  and  _225
REMARK   98  A    between atoms: _229  and  _231
REMARK   99  A    between atoms: _231  and  _232
REMARK  100  A    between atoms: _231  and  _234
REMARK  101  A    between atoms: _234  and  _235
REMARK  102  A    between atoms: _241  and  _243
REMARK  103  A    between atoms: _243  and  _244
REMARK  104  A    between atoms: _243  and  _246
REMARK  105  A    between atoms: _246  and  _247
REMARK  106  A    between atoms: _250  and  _252
REMARK  107  A    between atoms: _252  and  _253
REMARK  108  A    between atoms: _252  and  _255
REMARK  109  A    between atoms: _255  and  _256
REMARK  110  A    between atoms: _258  and  _260
REMARK  111  A    between atoms: _260  and  _261
REMARK  112  A    between atoms: _260  and  _263
REMARK  113  A    between atoms: _263  and  _264
REMARK  114  A    between atoms: _264  and  _265
REMARK  115  A    between atoms: _265  and  _266
REMARK  116  A    between atoms: _265  and  _267
REMARK  117  A    between atoms: _266  and  CA_271
REMARK                            x       y       z     vdW  Elec       q    Type
REMARK                         _______ _______ _______ _____ _____    ______ ____
ROOT
ATOM      1  C   ASP A   1      17.894  13.024  64.209  0.00  0.00    +0.239 C 
ATOM      2  O   ASP A   1      19.076  12.946  64.497  0.00  0.00    -0.274 OA
ATOM      3  N   ASN A   2      17.335  12.290  63.251  0.00  0.00    -0.298 N 
ATOM      4  H   ASN A   2      16.306  12.351  63.114  0.00  0.00    +0.150 HD
ENDROOT
BRANCH   1   5
ATOM      5  CA  ASP A   1      16.981  14.011  64.932  0.00  0.00    +0.156 C 
BRANCH   5   6
ATOM      6  N   ASP A   1      17.456  14.206  66.295  0.00  0.00    -0.238 NA
ATOM      7  H   ASP A   1      18.058  15.027  66.510  0.00  0.00    +0.142 HD
ENDBRANCH   5   6
BRANCH   5   8
ATOM      8  CB  ASP A   1      16.981  15.347  64.185  0.00  0.00    +0.140 C 
BRANCH   8   9
ATOM      9  CG  ASP A   1      16.274  15.269  62.848  0.00  0.00    +0.367 C 
ATOM     10  OD2 ASP A   1      15.284  14.540  62.760  0.00  0.00    -0.246 OA
ATOM     11  OD1 ASP A   1      16.700  15.931  61.886  0.00  0.00    -0.246 OA
ENDBRANCH   8   9
ENDBRANCH   5   8
ENDBRANCH   1   5
BRANCH   3  12
ATOM     12  CA  ASN A   2      18.113  11.392  62.373  0.00  0.00    +0.146 C 
BRANCH  12  13
ATOM     13  C   ASN A   2      18.986  10.425  63.166  0.00  0.00    +0.227 C 
ATOM     14  O   ASN A   2      20.154  10.189  62.847  0.00  0.00    -0.286 OA
ENDBRANCH  12  13
BRANCH  12  15
ATOM     15  CB  ASN A   2      18.945  12.187  61.363  0.00  0.00    +0.112 C 
BRANCH  15  16
ATOM     16  CG  ASN A   2      18.091  13.096  60.493  0.00  0.00    +0.222 C 
ATOM     17  OD1 ASN A   2      16.882  13.036  60.548  0.00  0.00    -0.275 OA
ATOM     18  ND2 ASN A   2      18.731  13.919  59.670  0.00  0.00    -0.329 N 
ATOM     19 HD21 ASN A   2      19.771  13.937  59.657  0.00  0.00    +0.145 HD
ATOM     20 HD22 ASN A   2      18.192  14.546  59.039  0.00  0.00    +0.145 HD
ENDBRANCH  15  16
ENDBRANCH  12  15
ENDBRANCH   3  12
TORSDOF 8
REMARK  Name = ../refined-set-2016/4avs/4avs_pocket.pdb
REMARK  117 active torsions:
REMARK  status: ('A' for Active; 'I' for Inactive)
REMARK    1  A    between atoms: _1  and  _3
REMARK    2  A    between atoms: _3  and  _4
REMARK    3  A    between atoms: _7  and  _9
REMARK    4  A    between atoms: _9  and  _10
REMARK    5  A    between atoms: _9  and  _12
REMARK    6  A    between atoms: _12  and  _13
REMARK    7  A    between atoms: _18  and  _19
REMARK    8  A    between atoms: _21  and  _23
REMARK    9  A    between atoms: _23  and  _24
REMARK   10  A    between atoms: _23  and  _26
REMARK   11  A    between atoms: _26  and  _27
REMARK   12  A    between atoms: _29  and  _31
REMARK   13  A    between atoms: _31  and  _32
REMARK   14  A    between atoms: _31  and  _34
REMARK   15  A    between atoms: _34  and  _35
REMARK   16  A    between atoms: _37  and  _39
REMARK   17  A    between atoms: _39  and  _40
REMARK   18  A    between atoms: _39  and  _42
REMARK   19  A    between atoms: _42  and  _43
REMARK   20  A    between atoms: _48  and  _50
REMARK   21  A    between atoms: _50  and  _51
REMARK   22  A    between atoms: _50  and  _53
REMARK   23  A    between atoms: _53  and  _54
REMARK   24  A    between atoms: _57  and  _59
REMARK   25  A    between atoms: _59  and  _60
REMARK   26  A    between atoms: _59  and  _62
REMARK   27  A    between atoms: _62  and  _63
REMARK   28  A    between atoms: _68  and  _70
REMARK   29  A    between atoms: _70  and  _71
REMARK   30  A    between atoms: _70  and  _73
REMARK   31  A    between atoms: _73  and  _74
REMARK   32  A    between atoms: _77  and  _79
REMARK   33  A    between atoms: _79  and  _80
REMARK   34  A    between atoms: _79  and  _82
REMARK   35  A    between atoms: _85  and  _87
REMARK   36  A    between atoms: _87  and  _88
REMARK   37  A    between atoms: _87  and  _90
REMARK   38  A    between atoms: _90  and  _91
REMARK   39  A    between atoms: _96  and  _97
REMARK   40  A    between atoms: _99  and  _101
REMARK   41  A    between atoms: _101  and  _102
REMARK   42  A    between atoms: _101  and  _104
REMARK   43  A    between atoms: _104  and  _105
REMARK   44  A    between atoms: _105  and  _106
REMARK   45  A    between atoms: _106  and  _107
REMARK   46  A    between atoms: _107  and  _108
REMARK   47  A    between atoms: _112  and  _114
REMARK   48  A    between atoms: _114  and  _115
REMARK   49  A    between atoms: _114  and  _117
REMARK   50  A    between atoms: _117  and  _118
REMARK   51  A    between atoms: _118  and  _119
REMARK   52  A    between atoms: _122  and  _124
REMARK   53  A    between atoms: _124  and  _125
REMARK   54  A    between atoms: _124  and  _127
REMARK   55  A    between atoms: _127  and  _128
REMARK   56  A    between atoms: _130  and  _132
REMARK   57  A    between atoms: _132  and  _133
REMARK   58  A    between atoms: _132  and  _135
REMARK   59  A    between atoms: _135  and  _136
REMARK   60  A    between atoms: _141  and  _142
REMARK   61  A    between atoms: _144  and  _146
REMARK   62  A    between atoms: _146  and  _147
REMARK   63  A    between atoms: _146  and  _149
REMARK   64  A    between atoms: _149  and  _150
REMARK   65  A    between atoms: _150  and  _151
REMARK   66  A    between atoms: _151  and  _152
REMARK   67  A    between atoms: _161  and  _163
REMARK   68  A    between atoms: _163  and  _164
REMARK   69  A    between atoms: _163  and  _166
REMARK   70  A    between atoms: _166  and  _167
REMARK   71  A    between atoms: _172  and  _174
REMARK   72  A    between atoms: _174  and  _175
REMARK   73  A    between atoms: _174  and  _177
REMARK   74  A    between atoms: _177  and  _178
REMARK   75  A    between atoms: _178  and  _179
REMARK   76  A    between atoms: _179  and  _180
REMARK   77  A    between atoms: _180  and  _181
REMARK   78  A    between atoms: _185  and  _187
REMARK   79  A    between atoms: _187  and  _188
REMARK   80  A    between atoms: _187  and  _190
REMARK   81  A    between atoms: _190  and  _191
REMARK   82  A    between atoms: _191  and  _192
REMARK   83  A    between atoms: _192  and  _193
REMARK   84  A    between atoms: _193  and  CA_271
REMARK   85  A    between atoms: _195  and  _197
REMARK   86  A    between atoms: _197  and  _198
REMARK   87  A    between atoms: _197  and  _200
REMARK   88  A    between atoms: _200  and  _201
REMARK   89  A    between atoms: _201  and  _202
REMARK   90  A    between atoms: _209  and  _210
REMARK   91  A    between atoms: _216  and  _218
REMARK   92  A    between atoms: _218  and  _219
REMARK   93  A    between atoms: _218  and  _221
REMARK   94  A    between atoms: _221  and  _222
REMARK   95  A    between atoms: _222  and  _223
REMARK   96  A    between atoms: _223  and  _224
REMARK   97  A    between atoms: _224  and  _225
REMARK   98  A    between atoms: _229  and  _231
REMARK   99  A    between atoms: _231  and  _232
REMARK  100  A    between atoms: _231  and  _234
REMARK  101  A    between atoms: _234  and  _235
REMARK  102  A    between atoms: _241  and  _243
REMARK  103  A    between atoms: _243  and  _244
REMARK  104  A    between atoms: _243  and  _246
REMARK  105  A    between atoms: _246  and  _247
REMARK  106  A    between atoms: _250  and  _252
REMARK  107  A    between atoms: _252  and  _253
REMARK  108  A    between atoms: _252  and  _255
REMARK  109  A    between atoms: _255  and  _256
REMARK  110  A    between atoms: _258  and  _260
REMARK  111  A    between atoms: _260  and  _261
REMARK  112  A    between atoms: _260  and  _263
REMARK  113  A    between atoms: _263  and  _264
REMARK  114  A    between atoms: _264  and  _265
REMARK  115  A    between atoms: _265  and  _266
REMARK  116  A    between atoms: _265  and  _267
REMARK  117  A    between atoms: _266  and  CA_271
REMARK                            x       y       z     vdW  Elec       q    Type
REMARK                         _______ _______ _______ _____ _____    ______ ____
ROOT
ATOM      1  CA  TYR A   3      16.905   7.830  53.040  0.00  0.00    +0.153 C 
ENDROOT
BRANCH   1   2
ATOM      2  C   TYR A   3      17.349   7.573  51.627  0.00  0.00    +0.241 C 
ATOM      3  O   TYR A   3      18.458   7.128  51.396  0.00  0.00    -0.273 OA
ATOM      4  N   LYS A   4      16.489   7.877  50.673  0.00  0.00    -0.297 N 
ATOM      5  H   LYS A   4      15.547   8.233  50.934  0.00  0.00    +0.150 HD
BRANCH   4   6
ATOM      6  CA  LYS A   4      16.824   7.727  49.265  0.00  0.00    +0.149 C 
BRANCH   6   7
ATOM      7  C   LYS A   4      16.947   9.114  48.627  0.00  0.00    +0.241 C 
ATOM      8  N   GLU A   5      18.165   9.596  48.384  0.00  0.00    -0.298 N 
ATOM      9  H   GLU A   5      19.002   9.020  48.606  0.00  0.00    +0.150 HD
ATOM     10  O   LYS A   4      15.945   9.742  48.339  0.00  0.00    -0.273 OA
BRANCH   8  11
ATOM     11  CA  GLU A   5      18.336  10.943  47.802  0.00  0.00    +0.137 C 
BRANCH  11  12
ATOM     12  C   GLU A   5      17.943  11.013  46.329  0.00  0.00    +0.227 C 
ATOM     13  O   GLU A   5      17.422  12.027  45.867  0.00  0.00    -0.286 OA
ENDBRANCH  11  12
BRANCH  11  14
ATOM     14  CB  GLU A   5      19.789  11.417  47.930  0.00  0.00    +0.039 C 
BRANCH  14  15
ATOM     15  CG  GLU A   5      20.164  11.983  49.293  0.00  0.00    +0.116 C 
BRANCH  15  16
ATOM     16  CD  GLU A   5      19.783  13.443  49.445  0.00  0.00    +0.365 C 
ATOM     17  OE2 GLU A   5      20.126  14.026  50.504  0.00  0.00    -0.246 OA
ATOM     18  OE1 GLU A   5      19.148  14.002  48.507  0.00  0.00    -0.246 OA
ENDBRANCH  15  16
ENDBRANCH  14  15
ENDBRANCH  11  14
ENDBRANCH   8  11
ENDBRANCH   6   7
BRANCH   6  19
ATOM     19  CB  LYS A   4      15.690   6.947  48.590  0.00  0.00    +0.029 C 
BRANCH  19  20
ATOM     20  CG  LYS A   4      16.009   6.549  47.183  0.00  0.00    +0.000 C 
BRANCH  20  21
ATOM     21  CD  LYS A   4      16.713   5.249  47.197  0.00  0.00    -0.024 C 
BRANCH  21  22
ATOM     22  CE  LYS A   4      17.092   4.843  45.796  0.00  0.00    -0.086 C 
BRANCH  22  23
ATOM     23  NZ  LYS A   4      15.923   4.785  44.865  0.00  0.00    +0.380 N 
ATOM     24  HZ1 LYS A   4      15.234   4.091  45.219  0.00  0.00    -0.089 HD
ATOM     25  HZ2 LYS A   4      15.477   5.723  44.812  0.00  0.00    -0.089 HD
ATOM     26  HZ3 LYS A   4      16.248   4.501  43.919  0.00  0.00    -0.089 HD
ENDBRANCH  22  23
ENDBRANCH  21  22
ENDBRANCH  20  21
ENDBRANCH  19  20
ENDBRANCH   6  19
ENDBRANCH   4   6
ENDBRANCH   1   2
BRANCH   1  29
ATOM     27  C   VAL A   2      16.530   6.174  54.790  0.00  0.00    +0.241 C 
ATOM     28  O   VAL A   2      15.333   6.393  54.846  0.00  0.00    -0.273 OA
ATOM     29  N   TYR A   3      17.342   6.737  53.899  0.00  0.00    -0.297 N 
ATOM     30  H   TYR A   3      18.317   6.387  53.813  0.00  0.00    +0.150 HD
BRANCH  27  31
ATOM     31  CA  VAL A   2      17.200   5.259  55.789  0.00  0.00    +0.148 C 
BRANCH  31  34
ATOM     32  C   LEU A   1      17.864   6.422  57.837  0.00  0.00    +0.238 C 
ATOM     33  O   LEU A   1      19.045   6.449  57.529  0.00  0.00    -0.274 OA
ATOM     34  N   VAL A   2      16.929   5.806  57.116  0.00  0.00    -0.297 N 
ATOM     35  H   VAL A   2      15.972   5.711  57.512  0.00  0.00    +0.150 HD
BRANCH  32  36
ATOM     36  CA  LEU A   1      17.384   7.109  59.094  0.00  0.00    +0.145 C 
BRANCH  36  37
ATOM     37  N   LEU A   1      18.214   6.688  60.204  0.00  0.00    -0.238 NA
ATOM     38  H   LEU A   1      19.240   6.578  60.071  0.00  0.00    +0.142 HD
ENDBRANCH  36  37
BRANCH  36  39
ATOM     39  CB  LEU A   1      17.450   8.641  58.936  0.00  0.00    +0.026 C 
BRANCH  39  40
ATOM     40  CG  LEU A   1      16.849   9.268  57.679  0.00  0.00    +0.002 C 
ATOM     41  CD2 LEU A   1      15.345   9.063  57.599  0.00  0.00    +0.000 C 
ATOM     42  CD1 LEU A   1      17.205  10.738  57.597  0.00  0.00    +0.000 C 
ENDBRANCH  39  40
ENDBRANCH  36  39
ENDBRANCH  32  36
ENDBRANCH  31  34
BRANCH  31  43
ATOM     43  CB  VAL A   2      16.696   3.824  55.643  0.00  0.00    +0.027 C 
ATOM     44  CG2 VAL A   2      17.312   2.958  56.712  0.00  0.00    +0.002 C 
ATOM     45  CG1 VAL A   2      17.074   3.282  54.267  0.00  0.00    +0.002 C 
ENDBRANCH  31  43
ENDBRANCH  27  31
ENDBRANCH   1  29
BRANCH   1  46
ATOM     46  CB  TYR A   3      17.540   9.141  53.552  0.00  0.00    +0.055 C 
BRANCH  46  47
ATOM     47  CG  TYR A   3      16.936  10.434  53.043  0.00  0.00    -0.020 A 
ATOM     48  CD2 TYR A   3      15.740  10.923  53.563  0.00  0.00    -0.001 A 
ATOM     49  CE2 TYR A   3      15.195  12.100  53.134  0.00  0.00    +0.036 A 
ATOM     50  CZ  TYR A   3      15.826  12.833  52.165  0.00  0.00    +0.134 A 
ATOM     51  CE1 TYR A   3      17.016  12.392  51.623  0.00  0.00    +0.036 A 
ATOM     52  CD1 TYR A   3      17.563  11.177  52.060  0.00  0.00    -0.001 A 
BRANCH  50  53
ATOM     53  OH  TYR A   3      15.249  14.012  51.764  0.00  0.00    -0.506 OA
ATOM     54  HH  TYR A   3      15.871  14.761  51.944  0.00  0.00    +0.292 HD
ENDBRANCH  50  53
ENDBRANCH  46  47
ENDBRANCH   1  46
TORSDOF 24
REMARK  Name = ../refined-set-2016/4avs/4avs_pocket.pdb
REMARK  117 active torsions:
REMARK  status: ('A' for Active; 'I' for Inactive)
REMARK    1  A    between atoms: _1  and  _3
REMARK    2  A    between atoms: _3  and  _4
REMARK    3  A    between atoms: _7  and  _9
REMARK    4  A    between atoms: _9  and  _10
REMARK    5  A    between atoms: _9  and  _12
REMARK    6  A    between atoms: _12  and  _13
REMARK    7  A    between atoms: _18  and  _19
REMARK    8  A    between atoms: _21  and  _23
REMARK    9  A    between atoms: _23  and  _24
REMARK   10  A    between atoms: _23  and  _26
REMARK   11  A    between atoms: _26  and  _27
REMARK   12  A    between atoms: _29  and  _31
REMARK   13  A    between atoms: _31  and  _32
REMARK   14  A    between atoms: _31  and  _34
REMARK   15  A    between atoms: _34  and  _35
REMARK   16  A    between atoms: _37  and  _39
REMARK   17  A    between atoms: _39  and  _40
REMARK   18  A    between atoms: _39  and  _42
REMARK   19  A    between atoms: _42  and  _43
REMARK   20  A    between atoms: _48  and  _50
REMARK   21  A    between atoms: _50  and  _51
REMARK   22  A    between atoms: _50  and  _53
REMARK   23  A    between atoms: _53  and  _54
REMARK   24  A    between atoms: _57  and  _59
REMARK   25  A    between atoms: _59  and  _60
REMARK   26  A    between atoms: _59  and  _62
REMARK   27  A    between atoms: _62  and  _63
REMARK   28  A    between atoms: _68  and  _70
REMARK   29  A    between atoms: _70  and  _71
REMARK   30  A    between atoms: _70  and  _73
REMARK   31  A    between atoms: _73  and  _74
REMARK   32  A    between atoms: _77  and  _79
REMARK   33  A    between atoms: _79  and  _80
REMARK   34  A    between atoms: _79  and  _82
REMARK   35  A    between atoms: _85  and  _87
REMARK   36  A    between atoms: _87  and  _88
REMARK   37  A    between atoms: _87  and  _90
REMARK   38  A    between atoms: _90  and  _91
REMARK   39  A    between atoms: _96  and  _97
REMARK   40  A    between atoms: _99  and  _101
REMARK   41  A    between atoms: _101  and  _102
REMARK   42  A    between atoms: _101  and  _104
REMARK   43  A    between atoms: _104  and  _105
REMARK   44  A    between atoms: _105  and  _106
REMARK   45  A    between atoms: _106  and  _107
REMARK   46  A    between atoms: _107  and  _108
REMARK   47  A    between atoms: _112  and  _114
REMARK   48  A    between atoms: _114  and  _115
REMARK   49  A    between atoms: _114  and  _117
REMARK   50  A    between atoms: _117  and  _118
REMARK   51  A    between atoms: _118  and  _119
REMARK   52  A    between atoms: _122  and  _124
REMARK   53  A    between atoms: _124  and  _125
REMARK   54  A    between atoms: _124  and  _127
REMARK   55  A    between atoms: _127  and  _128
REMARK   56  A    between atoms: _130  and  _132
REMARK   57  A    between atoms: _132  and  _133
REMARK   58  A    between atoms: _132  and  _135
REMARK   59  A    between atoms: _135  and  _136
REMARK   60  A    between atoms: _141  and  _142
REMARK   61  A    between atoms: _144  and  _146
REMARK   62  A    between atoms: _146  and  _147
REMARK   63  A    between atoms: _146  and  _149
REMARK   64  A    between atoms: _149  and  _150
REMARK   65  A    between atoms: _150  and  _151
REMARK   66  A    between atoms: _151  and  _152
REMARK   67  A    between atoms: _161  and  _163
REMARK   68  A    between atoms: _163  and  _164
REMARK   69  A    between atoms: _163  and  _166
REMARK   70  A    between atoms: _166  and  _167
REMARK   71  A    between atoms: _172  and  _174
REMARK   72  A    between atoms: _174  and  _175
REMARK   73  A    between atoms: _174  and  _177
REMARK   74  A    between atoms: _177  and  _178
REMARK   75  A    between atoms: _178  and  _179
REMARK   76  A    between atoms: _179  and  _180
REMARK   77  A    between atoms: _180  and  _181
REMARK   78  A    between atoms: _185  and  _187
REMARK   79  A    between atoms: _187  and  _188
REMARK   80  A    between atoms: _187  and  _190
REMARK   81  A    between atoms: _190  and  _191
REMARK   82  A    between atoms: _191  and  _192
REMARK   83  A    between atoms: _192  and  _193
REMARK   84  A    between atoms: _193  and  CA_271
REMARK   85  A    between atoms: _195  and  _197
REMARK   86  A    between atoms: _197  and  _198
REMARK   87  A    between atoms: _197  and  _200
REMARK   88  A    between atoms: _200  and  _201
REMARK   89  A    between atoms: _201  and  _202
REMARK   90  A    between atoms: _209  and  _210
REMARK   91  A    between atoms: _216  and  _218
REMARK   92  A    between atoms: _218  and  _219
REMARK   93  A    between atoms: _218  and  _221
REMARK   94  A    between atoms: _221  and  _222
REMARK   95  A    between atoms: _222  and  _223
REMARK   96  A    between atoms: _223  and  _224
REMARK   97  A    between atoms: _224  and  _225
REMARK   98  A    between atoms: _229  and  _231
REMARK   99  A    between atoms: _231  and  _232
REMARK  100  A    between atoms: _231  and  _234
REMARK  101  A    between atoms: _234  and  _235
REMARK  102  A    between atoms: _241  and  _243
REMARK  103  A    between atoms: _243  and  _244
REMARK  104  A    between atoms: _243  and  _246
REMARK  105  A    between atoms: _246  and  _247
REMARK  106  A    between atoms: _250  and  _252
REMARK  107  A    between atoms: _252  and  _253
REMARK  108  A    between atoms: _252  and  _255
REMARK  109  A    between atoms: _255  and  _256
REMARK  110  A    between atoms: _258  and  _260
REMARK  111  A    between atoms: _260  and  _261
REMARK  112  A    between atoms: _260  and  _263
REMARK  113  A    between atoms: _263  and  _264
REMARK  114  A    between atoms: _264  and  _265
REMARK  115  A    between atoms: _265  and  _266
REMARK  116  A    between atoms: _265  and  _267
REMARK  117  A    between atoms: _266  and  CA_271
REMARK                            x       y       z     vdW  Elec       q    Type
REMARK                         _______ _______ _______ _____ _____    ______ ____
ROOT
ATOM      1  CA  SER A   1      21.811   6.509  52.559  0.00  0.00    +0.163 C 
ENDROOT
BRANCH   1   2
ATOM      2  N   SER A   1      21.097   5.955  51.418  0.00  0.00    -0.237 NA
ATOM      3  H   SER A   1      20.075   6.126  51.329  0.00  0.00    +0.142 HD
ENDBRANCH   1   2
BRANCH   1   4
ATOM      4  C   SER A   1      21.322   5.958  53.873  0.00  0.00    +0.227 C 
ATOM      5  O   SER A   1      20.123   5.723  54.081  0.00  0.00    -0.287 OA
ENDBRANCH   1   4
BRANCH   1   6
ATOM      6  CB  SER A   1      21.667   8.035  52.589  0.00  0.00    +0.162 C 
BRANCH   6   7
ATOM      7  OG  SER A   1      22.206   8.632  51.423  0.00  0.00    -0.380 OA
ATOM      8  H   SER A   1      23.168   8.409  51.354  0.00  0.00    +0.211 HD
ENDBRANCH   6   7
ENDBRANCH   1   6
TORSDOF 4
REMARK  Name = ../refined-set-2016/4avs/4avs_pocket.pdb
REMARK  117 active torsions:
REMARK  status: ('A' for Active; 'I' for Inactive)
REMARK    1  A    between atoms: _1  and  _3
REMARK    2  A    between atoms: _3  and  _4
REMARK    3  A    between atoms: _7  and  _9
REMARK    4  A    between atoms: _9  and  _10
REMARK    5  A    between atoms: _9  and  _12
REMARK    6  A    between atoms: _12  and  _13
REMARK    7  A    between atoms: _18  and  _19
REMARK    8  A    between atoms: _21  and  _23
REMARK    9  A    between atoms: _23  and  _24
REMARK   10  A    between atoms: _23  and  _26
REMARK   11  A    between atoms: _26  and  _27
REMARK   12  A    between atoms: _29  and  _31
REMARK   13  A    between atoms: _31  and  _32
REMARK   14  A    between atoms: _31  and  _34
REMARK   15  A    between atoms: _34  and  _35
REMARK   16  A    between atoms: _37  and  _39
REMARK   17  A    between atoms: _39  and  _40
REMARK   18  A    between atoms: _39  and  _42
REMARK   19  A    between atoms: _42  and  _43
REMARK   20  A    between atoms: _48  and  _50
REMARK   21  A    between atoms: _50  and  _51
REMARK   22  A    between atoms: _50  and  _53
REMARK   23  A    between atoms: _53  and  _54
REMARK   24  A    between atoms: _57  and  _59
REMARK   25  A    between atoms: _59  and  _60
REMARK   26  A    between atoms: _59  and  _62
REMARK   27  A    between atoms: _62  and  _63
REMARK   28  A    between atoms: _68  and  _70
REMARK   29  A    between atoms: _70  and  _71
REMARK   30  A    between atoms: _70  and  _73
REMARK   31  A    between atoms: _73  and  _74
REMARK   32  A    between atoms: _77  and  _79
REMARK   33  A    between atoms: _79  and  _80
REMARK   34  A    between atoms: _79  and  _82
REMARK   35  A    between atoms: _85  and  _87
REMARK   36  A    between atoms: _87  and  _88
REMARK   37  A    between atoms: _87  and  _90
REMARK   38  A    between atoms: _90  and  _91
REMARK   39  A    between atoms: _96  and  _97
REMARK   40  A    between atoms: _99  and  _101
REMARK   41  A    between atoms: _101  and  _102
REMARK   42  A    between atoms: _101  and  _104
REMARK   43  A    between atoms: _104  and  _105
REMARK   44  A    between atoms: _105  and  _106
REMARK   45  A    between atoms: _106  and  _107
REMARK   46  A    between atoms: _107  and  _108
REMARK   47  A    between atoms: _112  and  _114
REMARK   48  A    between atoms: _114  and  _115
REMARK   49  A    between atoms: _114  and  _117
REMARK   50  A    between atoms: _117  and  _118
REMARK   51  A    between atoms: _118  and  _119
REMARK   52  A    between atoms: _122  and  _124
REMARK   53  A    between atoms: _124  and  _125
REMARK   54  A    between atoms: _124  and  _127
REMARK   55  A    between atoms: _127  and  _128
REMARK   56  A    between atoms: _130  and  _132
REMARK   57  A    between atoms: _132  and  _133
REMARK   58  A    between atoms: _132  and  _135
REMARK   59  A    between atoms: _135  and  _136
REMARK   60  A    between atoms: _141  and  _142
REMARK   61  A    between atoms: _144  and  _146
REMARK   62  A    between atoms: _146  and  _147
REMARK   63  A    between atoms: _146  and  _149
REMARK   64  A    between atoms: _149  and  _150
REMARK   65  A    between atoms: _150  and  _151
REMARK   66  A    between atoms: _151  and  _152
REMARK   67  A    between atoms: _161  and  _163
REMARK   68  A    between atoms: _163  and  _164
REMARK   69  A    between atoms: _163  and  _166
REMARK   70  A    between atoms: _166  and  _167
REMARK   71  A    between atoms: _172  and  _174
REMARK   72  A    between atoms: _174  and  _175
REMARK   73  A    between atoms: _174  and  _177
REMARK   74  A    between atoms: _177  and  _178
REMARK   75  A    between atoms: _178  and  _179
REMARK   76  A    between atoms: _179  and  _180
REMARK   77  A    between atoms: _180  and  _181
REMARK   78  A    between atoms: _185  and  _187
REMARK   79  A    between atoms: _187  and  _188
REMARK   80  A    between atoms: _187  and  _190
REMARK   81  A    between atoms: _190  and  _191
REMARK   82  A    between atoms: _191  and  _192
REMARK   83  A    between atoms: _192  and  _193
REMARK   84  A    between atoms: _193  and  CA_271
REMARK   85  A    between atoms: _195  and  _197
REMARK   86  A    between atoms: _197  and  _198
REMARK   87  A    between atoms: _197  and  _200
REMARK   88  A    between atoms: _200  and  _201
REMARK   89  A    between atoms: _201  and  _202
REMARK   90  A    between atoms: _209  and  _210
REMARK   91  A    between atoms: _216  and  _218
REMARK   92  A    between atoms: _218  and  _219
REMARK   93  A    between atoms: _218  and  _221
REMARK   94  A    between atoms: _221  and  _222
REMARK   95  A    between atoms: _222  and  _223
REMARK   96  A    between atoms: _223  and  _224
REMARK   97  A    between atoms: _224  and  _225
REMARK   98  A    between atoms: _229  and  _231
REMARK   99  A    between atoms: _231  and  _232
REMARK  100  A    between atoms: _231  and  _234
REMARK  101  A    between atoms: _234  and  _235
REMARK  102  A    between atoms: _241  and  _243
REMARK  103  A    between atoms: _243  and  _244
REMARK  104  A    between atoms: _243  and  _246
REMARK  105  A    between atoms: _246  and  _247
REMARK  106  A    between atoms: _250  and  _252
REMARK  107  A    between atoms: _252  and  _253
REMARK  108  A    between atoms: _252  and  _255
REMARK  109  A    between atoms: _255  and  _256
REMARK  110  A    between atoms: _258  and  _260
REMARK  111  A    between atoms: _260  and  _261
REMARK  112  A    between atoms: _260  and  _263
REMARK  113  A    between atoms: _263  and  _264
REMARK  114  A    between atoms: _264  and  _265
REMARK  115  A    between atoms: _265  and  _266
REMARK  116  A    between atoms: _265  and  _267
REMARK  117  A    between atoms: _266  and  CA_271
REMARK                            x       y       z     vdW  Elec       q    Type
REMARK                         _______ _______ _______ _____ _____    ______ ____
ROOT
ATOM      1  CG  TYR A   1      21.311  10.127  57.965  0.00  0.00    -0.020 A 
ATOM      2  CD2 TYR A   1      21.932  11.360  58.045  0.00  0.00    -0.001 A 
ATOM      3  CE2 TYR A   1      21.933  12.242  56.987  0.00  0.00    +0.036 A 
ATOM      4  CZ  TYR A   1      21.325  11.897  55.812  0.00  0.00    +0.134 A 
ATOM      5  CE1 TYR A   1      20.666  10.676  55.706  0.00  0.00    +0.036 A 
ATOM      6  CD1 TYR A   1      20.676   9.795  56.783  0.00  0.00    -0.001 A 
ENDROOT
BRANCH   4   7
ATOM      7  OH  TYR A   1      21.329  12.786  54.752  0.00  0.00    -0.506 OA
ATOM      8  HH  TYR A   1      22.264  12.984  54.493  0.00  0.00    +0.292 HD
ENDBRANCH   4   7
BRANCH   1   9
ATOM      9  CB  TYR A   1      21.310   9.200  59.139  0.00  0.00    +0.051 C 
BRANCH   9  10
ATOM     10  CA  TYR A   1      22.217   7.981  59.002  0.00  0.00    +0.137 C 
BRANCH  10  11
ATOM     11  N   TYR A   1      21.752   7.078  57.953  0.00  0.00    -0.239 NA
ATOM     12  H   TYR A   1      20.741   6.837  57.914  0.00  0.00    +0.142 HD
ENDBRANCH  10  11
BRANCH  10  13
ATOM     13  C   TYR A   1      22.202   7.221  60.301  0.00  0.00    +0.224 C 
ATOM     14  O   TYR A   1      21.210   6.560  60.617  0.00  0.00    -0.287 OA
ENDBRANCH  10  13
ENDBRANCH   9  10
ENDBRANCH   1   9
TORSDOF 5
REMARK  Name = ../refined-set-2016/4avs/4avs_pocket.pdb
REMARK  117 active torsions:
REMARK  status: ('A' for Active; 'I' for Inactive)
REMARK    1  A    between atoms: _1  and  _3
REMARK    2  A    between atoms: _3  and  _4
REMARK    3  A    between atoms: _7  and  _9
REMARK    4  A    between atoms: _9  and  _10
REMARK    5  A    between atoms: _9  and  _12
REMARK    6  A    between atoms: _12  and  _13
REMARK    7  A    between atoms: _18  and  _19
REMARK    8  A    between atoms: _21  and  _23
REMARK    9  A    between atoms: _23  and  _24
REMARK   10  A    between atoms: _23  and  _26
REMARK   11  A    between atoms: _26  and  _27
REMARK   12  A    between atoms: _29  and  _31
REMARK   13  A    between atoms: _31  and  _32
REMARK   14  A    between atoms: _31  and  _34
REMARK   15  A    between atoms: _34  and  _35
REMARK   16  A    between atoms: _37  and  _39
REMARK   17  A    between atoms: _39  and  _40
REMARK   18  A    between atoms: _39  and  _42
REMARK   19  A    between atoms: _42  and  _43
REMARK   20  A    between atoms: _48  and  _50
REMARK   21  A    between atoms: _50  and  _51
REMARK   22  A    between atoms: _50  and  _53
REMARK   23  A    between atoms: _53  and  _54
REMARK   24  A    between atoms: _57  and  _59
REMARK   25  A    between atoms: _59  and  _60
REMARK   26  A    between atoms: _59  and  _62
REMARK   27  A    between atoms: _62  and  _63
REMARK   28  A    between atoms: _68  and  _70
REMARK   29  A    between atoms: _70  and  _71
REMARK   30  A    between atoms: _70  and  _73
REMARK   31  A    between atoms: _73  and  _74
REMARK   32  A    between atoms: _77  and  _79
REMARK   33  A    between atoms: _79  and  _80
REMARK   34  A    between atoms: _79  and  _82
REMARK   35  A    between atoms: _85  and  _87
REMARK   36  A    between atoms: _87  and  _88
REMARK   37  A    between atoms: _87  and  _90
REMARK   38  A    between atoms: _90  and  _91
REMARK   39  A    between atoms: _96  and  _97
REMARK   40  A    between atoms: _99  and  _101
REMARK   41  A    between atoms: _101  and  _102
REMARK   42  A    between atoms: _101  and  _104
REMARK   43  A    between atoms: _104  and  _105
REMARK   44  A    between atoms: _105  and  _106
REMARK   45  A    between atoms: _106  and  _107
REMARK   46  A    between atoms: _107  and  _108
REMARK   47  A    between atoms: _112  and  _114
REMARK   48  A    between atoms: _114  and  _115
REMARK   49  A    between atoms: _114  and  _117
REMARK   50  A    between atoms: _117  and  _118
REMARK   51  A    between atoms: _118  and  _119
REMARK   52  A    between atoms: _122  and  _124
REMARK   53  A    between atoms: _124  and  _125
REMARK   54  A    between atoms: _124  and  _127
REMARK   55  A    between atoms: _127  and  _128
REMARK   56  A    between atoms: _130  and  _132
REMARK   57  A    between atoms: _132  and  _133
REMARK   58  A    between atoms: _132  and  _135
REMARK   59  A    between atoms: _135  and  _136
REMARK   60  A    between atoms: _141  and  _142
REMARK   61  A    between atoms: _144  and  _146
REMARK   62  A    between atoms: _146  and  _147
REMARK   63  A    between atoms: _146  and  _149
REMARK   64  A    between atoms: _149  and  _150
REMARK   65  A    between atoms: _150  and  _151
REMARK   66  A    between atoms: _151  and  _152
REMARK   67  A    between atoms: _161  and  _163
REMARK   68  A    between atoms: _163  and  _164
REMARK   69  A    between atoms: _163  and  _166
REMARK   70  A    between atoms: _166  and  _167
REMARK   71  A    between atoms: _172  and  _174
REMARK   72  A    between atoms: _174  and  _175
REMARK   73  A    between atoms: _174  and  _177
REMARK   74  A    between atoms: _177  and  _178
REMARK   75  A    between atoms: _178  and  _179
REMARK   76  A    between atoms: _179  and  _180
REMARK   77  A    between atoms: _180  and  _181
REMARK   78  A    between atoms: _185  and  _187
REMARK   79  A    between atoms: _187  and  _188
REMARK   80  A    between atoms: _187  and  _190
REMARK   81  A    between atoms: _190  and  _191
REMARK   82  A    between atoms: _191  and  _192
REMARK   83  A    between atoms: _192  and  _193
REMARK   84  A    between atoms: _193  and  CA_271
REMARK   85  A    between atoms: _195  and  _197
REMARK   86  A    between atoms: _197  and  _198
REMARK   87  A    between atoms: _197  and  _200
REMARK   88  A    between atoms: _200  and  _201
REMARK   89  A    between atoms: _201  and  _202
REMARK   90  A    between atoms: _209  and  _210
REMARK   91  A    between atoms: _216  and  _218
REMARK   92  A    between atoms: _218  and  _219
REMARK   93  A    between atoms: _218  and  _221
REMARK   94  A    between atoms: _221  and  _222
REMARK   95  A    between atoms: _222  and  _223
REMARK   96  A    between atoms: _223  and  _224
REMARK   97  A    between atoms: _224  and  _225
REMARK   98  A    between atoms: _229  and  _231
REMARK   99  A    between atoms: _231  and  _232
REMARK  100  A    between atoms: _231  and  _234
REMARK  101  A    between atoms: _234  and  _235
REMARK  102  A    between atoms: _241  and  _243
REMARK  103  A    between atoms: _243  and  _244
REMARK  104  A    between atoms: _243  and  _246
REMARK  105  A    between atoms: _246  and  _247
REMARK  106  A    between atoms: _250  and  _252
REMARK  107  A    between atoms: _252  and  _253
REMARK  108  A    between atoms: _252  and  _255
REMARK  109  A    between atoms: _255  and  _256
REMARK  110  A    between atoms: _258  and  _260
REMARK  111  A    between atoms: _260  and  _261
REMARK  112  A    between atoms: _260  and  _263
REMARK  113  A    between atoms: _263  and  _264
REMARK  114  A    between atoms: _264  and  _265
REMARK  115  A    between atoms: _265  and  _266
REMARK  116  A    between atoms: _265  and  _267
REMARK  117  A    between atoms: _266  and  CA_271
REMARK                            x       y       z     vdW  Elec       q    Type
REMARK                         _______ _______ _______ _____ _____    ______ ____
ROOT
ATOM      1  CA  HIS A   2      26.325  10.940  60.530  0.00  0.00    +0.155 C 
ENDROOT
BRANCH   1   2
ATOM      2  C   HIS A   2      25.749  10.099  59.373  0.00  0.00    +0.241 C 
ATOM      3  O   HIS A   2      24.895   9.255  59.594  0.00  0.00    -0.273 OA
ATOM      4  N   LYS A   3      26.243  10.296  58.155  0.00  0.00    -0.298 N 
ATOM      5  H   LYS A   3      27.047  10.944  58.031  0.00  0.00    +0.150 HD
BRANCH   4   6
ATOM      6  CA  LYS A   3      25.680   9.621  56.983  0.00  0.00    +0.137 C 
BRANCH   6   7
ATOM      7  C   LYS A   3      26.725   8.816  56.228  0.00  0.00    +0.227 C 
ATOM      8  O   LYS A   3      27.888   9.233  56.131  0.00  0.00    -0.286 OA
ENDBRANCH   6   7
BRANCH   6   9
ATOM      9  CB  LYS A   3      25.099  10.670  56.023  0.00  0.00    +0.028 C 
BRANCH   9  10
ATOM     10  CG  LYS A   3      24.641  10.062  54.709  0.00  0.00    -0.000 C 
BRANCH  10  11
ATOM     11  CD  LYS A   3      23.852  11.011  53.845  0.00  0.00    -0.024 C 
BRANCH  11  12
ATOM     12  CE  LYS A   3      24.706  12.138  53.357  0.00  0.00    -0.086 C 
BRANCH  12  13
ATOM     13  NZ  LYS A   3      25.759  11.670  52.438  0.00  0.00    +0.380 N 
ATOM     14  HZ1 LYS A   3      26.369  10.987  52.931  0.00  0.00    -0.089 HD
ATOM     15  HZ2 LYS A   3      26.328  12.481  52.123  0.00  0.00    -0.089 HD
ATOM     16  HZ3 LYS A   3      25.320  11.212  51.614  0.00  0.00    -0.089 HD
ENDBRANCH  12  13
ENDBRANCH  11  12
ENDBRANCH  10  11
ENDBRANCH   9  10
ENDBRANCH   6   9
ENDBRANCH   4   6
ENDBRANCH   1   2
BRANCH   1  18
ATOM     17  C   ARG A   1      24.417  12.207  61.366  0.00  0.00    +0.238 C 
ATOM     18  N   HIS A   2      25.257  11.187  61.494  0.00  0.00    -0.297 N 
ATOM     19  H   HIS A   2      25.151  10.545  62.305  0.00  0.00    +0.150 HD
ATOM     20  O   ARG A   1      24.569  13.068  60.524  0.00  0.00    -0.274 OA
BRANCH  17  21
ATOM     21  CA  ARG A   1      23.226  12.290  62.324  0.00  0.00    +0.145 C 
BRANCH  21  22
ATOM     22  N   ARG A   1      23.005  11.111  63.153  0.00  0.00    -0.238 NA
ATOM     23  H   ARG A   1      22.227  10.469  62.900  0.00  0.00    +0.142 HD
ENDBRANCH  21  22
BRANCH  21  24
ATOM     24  CB  ARG A   1      23.276  13.562  63.193  0.00  0.00    +0.030 C 
BRANCH  24  25
ATOM     25  CG  ARG A   1      21.913  13.880  63.766  0.00  0.00    +0.045 C 
BRANCH  25  26
ATOM     26  CD  ARG A   1      21.956  14.516  65.155  0.00  0.00    +0.174 C 
BRANCH  26  27
ATOM     27  NE  ARG A   1      22.647  13.679  66.144  0.00  0.00    -0.265 N 
ATOM     28  CZ  ARG A   1      22.183  12.544  66.676  0.00  0.00    +0.342 C 
ATOM     29  NH2 ARG A   1      22.934  11.888  67.553  0.00  0.00    -0.292 N 
ATOM     30 HH21 ARG A   1      22.587  11.003  67.976  0.00  0.00    +0.255 HD
ATOM     31 HH22 ARG A   1      23.869  12.259  67.817  0.00  0.00    +0.255 HD
ATOM     32  NH1 ARG A   1      21.010  12.025  66.318  0.00  0.00    -0.292 N 
ATOM     33 HH11 ARG A   1      20.679  11.140  66.752  0.00  0.00    +0.255 HD
ATOM     34 HH12 ARG A   1      20.425  12.505  65.604  0.00  0.00    +0.255 HD
ATOM     35  HE  ARG A   1      23.585  13.999  66.460  0.00  0.00    +0.259 HD
ENDBRANCH  26  27
ENDBRANCH  25  26
ENDBRANCH  24  25
ENDBRANCH  21  24
ENDBRANCH  17  21
ENDBRANCH   1  18
BRANCH   1  36
ATOM     36  CB  HIS A   2      27.449  10.153  61.204  0.00  0.00    +0.076 C 
BRANCH  36  37
ATOM     37  CG  HIS A   2      28.165  10.896  62.290  0.00  0.00    +0.082 A 
ATOM     38  CD2 HIS A   2      27.803  11.960  63.044  0.00  0.00    +0.115 A 
ATOM     39  NE2 HIS A   2      28.832  12.206  63.920  0.00  0.00    -0.221 NA
ATOM     40  CE1 HIS A   2      29.800  11.337  63.703  0.00  0.00    +0.199 A 
ATOM     41  ND1 HIS A   2      29.421  10.530  62.726  0.00  0.00    -0.227 NA
ENDBRANCH  36  37
ENDBRANCH   1  36
TORSDOF 17
REMARK  Name = ../refined-set-2016/4avs/4avs_pocket.pdb
REMARK  117 active torsions:
REMARK  status: ('A' for Active; 'I' for Inactive)
REMARK    1  A    between atoms: _1  and  _3
REMARK    2  A    between atoms: _3  and  _4
REMARK    3  A    between atoms: _7  and  _9
REMARK    4  A    between atoms: _9  and  _10
REMARK    5  A    between atoms: _9  and  _12
REMARK    6  A    between atoms: _12  and  _13
REMARK    7  A    between atoms: _18  and  _19
REMARK    8  A    between atoms: _21  and  _23
REMARK    9  A    between atoms: _23  and  _24
REMARK   10  A    between atoms: _23  and  _26
REMARK   11  A    between atoms: _26  and  _27
REMARK   12  A    between atoms: _29  and  _31
REMARK   13  A    between atoms: _31  and  _32
REMARK   14  A    between atoms: _31  and  _34
REMARK   15  A    between atoms: _34  and  _35
REMARK   16  A    between atoms: _37  and  _39
REMARK   17  A    between atoms: _39  and  _40
REMARK   18  A    between atoms: _39  and  _42
REMARK   19  A    between atoms: _42  and  _43
REMARK   20  A    between atoms: _48  and  _50
REMARK   21  A    between atoms: _50  and  _51
REMARK   22  A    between atoms: _50  and  _53
REMARK   23  A    between atoms: _53  and  _54
REMARK   24  A    between atoms: _57  and  _59
REMARK   25  A    between atoms: _59  and  _60
REMARK   26  A    between atoms: _59  and  _62
REMARK   27  A    between atoms: _62  and  _63
REMARK   28  A    between atoms: _68  and  _70
REMARK   29  A    between atoms: _70  and  _71
REMARK   30  A    between atoms: _70  and  _73
REMARK   31  A    between atoms: _73  and  _74
REMARK   32  A    between atoms: _77  and  _79
REMARK   33  A    between atoms: _79  and  _80
REMARK   34  A    between atoms: _79  and  _82
REMARK   35  A    between atoms: _85  and  _87
REMARK   36  A    between atoms: _87  and  _88
REMARK   37  A    between atoms: _87  and  _90
REMARK   38  A    between atoms: _90  and  _91
REMARK   39  A    between atoms: _96  and  _97
REMARK   40  A    between atoms: _99  and  _101
REMARK   41  A    between atoms: _101  and  _102
REMARK   42  A    between atoms: _101  and  _104
REMARK   43  A    between atoms: _104  and  _105
REMARK   44  A    between atoms: _105  and  _106
REMARK   45  A    between atoms: _106  and  _107
REMARK   46  A    between atoms: _107  and  _108
REMARK   47  A    between atoms: _112  and  _114
REMARK   48  A    between atoms: _114  and  _115
REMARK   49  A    between atoms: _114  and  _117
REMARK   50  A    between atoms: _117  and  _118
REMARK   51  A    between atoms: _118  and  _119
REMARK   52  A    between atoms: _122  and  _124
REMARK   53  A    between atoms: _124  and  _125
REMARK   54  A    between atoms: _124  and  _127
REMARK   55  A    between atoms: _127  and  _128
REMARK   56  A    between atoms: _130  and  _132
REMARK   57  A    between atoms: _132  and  _133
REMARK   58  A    between atoms: _132  and  _135
REMARK   59  A    between atoms: _135  and  _136
REMARK   60  A    between atoms: _141  and  _142
REMARK   61  A    between atoms: _144  and  _146
REMARK   62  A    between atoms: _146  and  _147
REMARK   63  A    between atoms: _146  and  _149
REMARK   64  A    between atoms: _149  and  _150
REMARK   65  A    between atoms: _150  and  _151
REMARK   66  A    between atoms: _151  and  _152
REMARK   67  A    between atoms: _161  and  _163
REMARK   68  A    between atoms: _163  and  _164
REMARK   69  A    between atoms: _163  and  _166
REMARK   70  A    between atoms: _166  and  _167
REMARK   71  A    between atoms: _172  and  _174
REMARK   72  A    between atoms: _174  and  _175
REMARK   73  A    between atoms: _174  and  _177
REMARK   74  A    between atoms: _177  and  _178
REMARK   75  A    between atoms: _178  and  _179
REMARK   76  A    between atoms: _179  and  _180
REMARK   77  A    between atoms: _180  and  _181
REMARK   78  A    between atoms: _185  and  _187
REMARK   79  A    between atoms: _187  and  _188
REMARK   80  A    between atoms: _187  and  _190
REMARK   81  A    between atoms: _190  and  _191
REMARK   82  A    between atoms: _191  and  _192
REMARK   83  A    between atoms: _192  and  _193
REMARK   84  A    between atoms: _193  and  CA_271
REMARK   85  A    between atoms: _195  and  _197
REMARK   86  A    between atoms: _197  and  _198
REMARK   87  A    between atoms: _197  and  _200
REMARK   88  A    between atoms: _200  and  _201
REMARK   89  A    between atoms: _201  and  _202
REMARK   90  A    between atoms: _209  and  _210
REMARK   91  A    between atoms: _216  and  _218
REMARK   92  A    between atoms: _218  and  _219
REMARK   93  A    between atoms: _218  and  _221
REMARK   94  A    between atoms: _221  and  _222
REMARK   95  A    between atoms: _222  and  _223
REMARK   96  A    between atoms: _223  and  _224
REMARK   97  A    between atoms: _224  and  _225
REMARK   98  A    between atoms: _229  and  _231
REMARK   99  A    between atoms: _231  and  _232
REMARK  100  A    between atoms: _231  and  _234
REMARK  101  A    between atoms: _234  and  _235
REMARK  102  A    between atoms: _241  and  _243
REMARK  103  A    between atoms: _243  and  _244
REMARK  104  A    between atoms: _243  and  _246
REMARK  105  A    between atoms: _246  and  _247
REMARK  106  A    between atoms: _250  and  _252
REMARK  107  A    between atoms: _252  and  _253
REMARK  108  A    between atoms: _252  and  _255
REMARK  109  A    between atoms: _255  and  _256
REMARK  110  A    between atoms: _258  and  _260
REMARK  111  A    between atoms: _260  and  _261
REMARK  112  A    between atoms: _260  and  _263
REMARK  113  A    between atoms: _263  and  _264
REMARK  114  A    between atoms: _264  and  _265
REMARK  115  A    between atoms: _265  and  _266
REMARK  116  A    between atoms: _265  and  _267
REMARK  117  A    between atoms: _266  and  CA_271
REMARK                            x       y       z     vdW  Elec       q    Type
REMARK                         _______ _______ _______ _____ _____    ______ ____
ROOT
ATOM      1  C   UNK A   0      10.700  12.069  57.724  0.00  0.00    +0.000 C 
ENDROOT
BRANCH   1   2
ATOM      2  C   UNK A   0      10.507  12.956  58.972  0.00  0.00    +0.000 C 
ATOM      3  N   UNK A   0      10.916  12.471  60.140  0.00  0.00    +0.000 N 
ATOM      4  H   UNK A   0      11.358  11.530  60.175  0.00  0.00    +0.000 HD
ATOM      5  O   UNK A   0       9.967  14.049  58.882  0.00  0.00    +0.000 OA
BRANCH   3   6
ATOM      6  C   UNK A   0      10.756  13.235  61.379  0.00  0.00    +0.000 C 
BRANCH   6   7
ATOM      7  C   UNK A   0      11.839  14.262  61.544  0.00  0.00    +0.000 C 
ATOM      8  N   UNK A   1      11.479  15.471  61.966  0.00  0.00    +0.000 NA
ATOM      9  C   UNK A   1      12.473  16.438  62.457  0.00  0.00    +0.000 C 
ATOM     10  C   UNK A   1      12.427  17.751  61.664  0.00  0.00    +0.000 C 
ATOM     11  C   UNK A   1      13.057  17.617  60.297  0.00  0.00    +0.000 C 
ATOM     12  O   UNK A   1      13.850  16.679  60.079  0.00  0.00    +0.000 OA
ATOM     13 CA   UNK A   1      15.050  14.614  60.267  0.00  0.00    +0.000 Ca
ATOM     14  O   UNK A   1      12.764  18.435  59.413  0.00  0.00    +0.000 OA
ATOM     15  H   UNK A   1      10.474  15.738  61.948  0.00  0.00    +0.000 HD
ATOM     16  O   UNK A   0      12.985  13.949  61.320  0.00  0.00    +0.000 OA
BRANCH   9  17
ATOM     17  C   UNK A   1      12.325  16.713  63.953  0.00  0.00    +0.000 C 
ATOM     18  O   UNK A   1      13.141  17.428  64.522  0.00  0.00    +0.000 OA
ENDBRANCH   9  17
ENDBRANCH   6   7
BRANCH   6  19
ATOM     19  C   UNK A   0      10.843  12.324  62.600  0.00  0.00    +0.000 C 
BRANCH  19  20
ATOM     20  C   UNK A   0       9.718  11.347  62.759  0.00  0.00    +0.000 C 
BRANCH  20  21
ATOM     21  C   UNK A   0       9.988  10.392  63.883  0.00  0.00    +0.000 C 
ATOM     22  O   UNK A   0       9.657  10.667  65.033  0.00  0.00    +0.000 OA
ATOM     23  N   UNK A   0      10.629   9.278  63.575  0.00  0.00    +0.000 N 
ATOM     24  H   UNK A   0      10.872   8.595  64.320  0.00  0.00    +0.000 HD
ATOM     25  H   UNK A   0      10.891   9.085  62.587  0.00  0.00    +0.000 HD
ENDBRANCH  20  21
ENDBRANCH  19  20
ENDBRANCH   6  19
ENDBRANCH   3   6
ENDBRANCH   1   2
BRANCH   1  26
ATOM     26  N   UNK A   0       9.415  11.900  57.068  0.00  0.00    +0.000 NA
ATOM     27  H   UNK A   0       9.063  12.659  56.450  0.00  0.00    +0.000 HD
ENDBRANCH   1  26
BRANCH   1  28
ATOM     28  C   UNK A   0      11.682  12.710  56.741  0.00  0.00    +0.000 C 
BRANCH  28  29
ATOM     29  C   UNK A   0      13.143  12.403  57.009  0.00  0.00    +0.000 C 
BRANCH  29  30
ATOM     30  C   UNK A   0      13.699  13.196  58.173  0.00  0.00    +0.000 C 
ATOM     31  O   UNK A   0      14.417  12.620  59.010  0.00  0.00    +0.000 OA
BRANCH  30  32
ATOM     32  O   UNK A   0      13.438  14.409  58.238  0.00  0.00    +0.000 OA
BRANCH  32  33
ATOM     33 CA   UNK A   0      13.190  16.706  57.612  0.00  0.00    +0.000 Ca
BRANCH  33  34
ATOM     34  O   UNK A   0      12.618  15.906  55.442  0.00  0.00    +0.000 OA
BRANCH  34  35
ATOM     35  C   UNK A   0      13.202  15.744  54.369  0.00  0.00    +0.000 C 
BRANCH  35  36
ATOM     36  N   UNK A   0      14.524  15.686  54.276  0.00  0.00    +0.000 NA
ATOM     37  H   UNK A   0      15.110  15.779  55.130  0.00  0.00    +0.000 HD
ATOM     38  H   UNK A   0      14.975  15.548  53.349  0.00  0.00    +0.000 HD
ENDBRANCH  35  36
BRANCH  35  39
ATOM     39  C   UNK A   2      12.425  15.546  53.088  0.00  0.00    +0.000 C 
BRANCH  39  40
ATOM     40  C   UNK A   2      11.404  14.442  53.227  0.00  0.00    +0.000 C 
BRANCH  40  41
ATOM     41  C   UNK A   2      10.592  14.192  51.966  0.00  0.00    +0.000 C 
BRANCH  41  42
ATOM     42  N   UNK A   2       9.865  15.398  51.572  0.00  0.00    +0.000 N 
ATOM     43  H   UNK A   2       9.191  15.821  52.242  0.00  0.00    +0.000 HD
ATOM     44  C   UNK A   1      10.038  15.970  50.387  0.00  0.00    +0.000 C 
ATOM     45  O   UNK A   1      10.873  15.585  49.576  0.00  0.00    +0.000 OA
BRANCH  44  46
ATOM     46  C   UNK A   1       9.139  17.166  50.057  0.00  0.00    +0.000 C 
BRANCH  46  47
ATOM     47  N   UNK A   1       8.182  17.472  51.110  0.00  0.00    +0.000 NA
ATOM     48  H   UNK A   1       8.353  18.278  51.744  0.00  0.00    +0.000 HD
ENDBRANCH  46  47
BRANCH  46  49
ATOM     49  C   UNK A   1      10.003  18.390  49.762  0.00  0.00    +0.000 C 
BRANCH  49  50
ATOM     50  O   UNK A   1      10.914  18.635  50.813  0.00  0.00    +0.000 OA
ATOM     51  H   UNK A   1      10.413  18.795  51.652  0.00  0.00    +0.000 HD
ENDBRANCH  49  50
ENDBRANCH  46  49
ENDBRANCH  44  46
ENDBRANCH  41  42
BRANCH  41  52
ATOM     52  C   UNK A   2       9.646  13.024  52.217  0.00  0.00    +0.000 C 
ATOM     53  O   UNK A   2      10.085  11.926  52.600  0.00  0.00    +0.000 OA
ENDBRANCH  41  52
ENDBRANCH  40  41
ENDBRANCH  39  40
ENDBRANCH  35  39
ENDBRANCH  34  35
ENDBRANCH  33  34
ENDBRANCH  32  33
ENDBRANCH  30  32
ENDBRANCH  29  30
ENDBRANCH  28  29
ENDBRANCH   1  28
TORSDOF 25
REMARK  Name = ../refined-set-2016/4avs/4avs_pocket.pdb
REMARK  117 active torsions:
REMARK  status: ('A' for Active; 'I' for Inactive)
REMARK    1  A    between atoms: _1  and  _3
REMARK    2  A    between atoms: _3  and  _4
REMARK    3  A    between atoms: _7  and  _9
REMARK    4  A    between atoms: _9  and  _10
REMARK    5  A    between atoms: _9  and  _12
REMARK    6  A    between atoms: _12  and  _13
REMARK    7  A    between atoms: _18  and  _19
REMARK    8  A    between atoms: _21  and  _23
REMARK    9  A    between atoms: _23  and  _24
REMARK   10  A    between atoms: _23  and  _26
REMARK   11  A    between atoms: _26  and  _27
REMARK   12  A    between atoms: _29  and  _31
REMARK   13  A    between atoms: _31  and  _32
REMARK   14  A    between atoms: _31  and  _34
REMARK   15  A    between atoms: _34  and  _35
REMARK   16  A    between atoms: _37  and  _39
REMARK   17  A    between atoms: _39  and  _40
REMARK   18  A    between atoms: _39  and  _42
REMARK   19  A    between atoms: _42  and  _43
REMARK   20  A    between atoms: _48  and  _50
REMARK   21  A    between atoms: _50  and  _51
REMARK   22  A    between atoms: _50  and  _53
REMARK   23  A    between atoms: _53  and  _54
REMARK   24  A    between atoms: _57  and  _59
REMARK   25  A    between atoms: _59  and  _60
REMARK   26  A    between atoms: _59  and  _62
REMARK   27  A    between atoms: _62  and  _63
REMARK   28  A    between atoms: _68  and  _70
REMARK   29  A    between atoms: _70  and  _71
REMARK   30  A    between atoms: _70  and  _73
REMARK   31  A    between atoms: _73  and  _74
REMARK   32  A    between atoms: _77  and  _79
REMARK   33  A    between atoms: _79  and  _80
REMARK   34  A    between atoms: _79  and  _82
REMARK   35  A    between atoms: _85  and  _87
REMARK   36  A    between atoms: _87  and  _88
REMARK   37  A    between atoms: _87  and  _90
REMARK   38  A    between atoms: _90  and  _91
REMARK   39  A    between atoms: _96  and  _97
REMARK   40  A    between atoms: _99  and  _101
REMARK   41  A    between atoms: _101  and  _102
REMARK   42  A    between atoms: _101  and  _104
REMARK   43  A    between atoms: _104  and  _105
REMARK   44  A    between atoms: _105  and  _106
REMARK   45  A    between atoms: _106  and  _107
REMARK   46  A    between atoms: _107  and  _108
REMARK   47  A    between atoms: _112  and  _114
REMARK   48  A    between atoms: _114  and  _115
REMARK   49  A    between atoms: _114  and  _117
REMARK   50  A    between atoms: _117  and  _118
REMARK   51  A    between atoms: _118  and  _119
REMARK   52  A    between atoms: _122  and  _124
REMARK   53  A    between atoms: _124  and  _125
REMARK   54  A    between atoms: _124  and  _127
REMARK   55  A    between atoms: _127  and  _128
REMARK   56  A    between atoms: _130  and  _132
REMARK   57  A    between atoms: _132  and  _133
REMARK   58  A    between atoms: _132  and  _135
REMARK   59  A    between atoms: _135  and  _136
REMARK   60  A    between atoms: _141  and  _142
REMARK   61  A    between atoms: _144  and  _146
REMARK   62  A    between atoms: _146  and  _147
REMARK   63  A    between atoms: _146  and  _149
REMARK   64  A    between atoms: _149  and  _150
REMARK   65  A    between atoms: _150  and  _151
REMARK   66  A    between atoms: _151  and  _152
REMARK   67  A    between atoms: _161  and  _163
REMARK   68  A    between atoms: _163  and  _164
REMARK   69  A    between atoms: _163  and  _166
REMARK   70  A    between atoms: _166  and  _167
REMARK   71  A    between atoms: _172  and  _174
REMARK   72  A    between atoms: _174  and  _175
REMARK   73  A    between atoms: _174  and  _177
REMARK   74  A    between atoms: _177  and  _178
REMARK   75  A    between atoms: _178  and  _179
REMARK   76  A    between atoms: _179  and  _180
REMARK   77  A    between atoms: _180  and  _181
REMARK   78  A    between atoms: _185  and  _187
REMARK   79  A    between atoms: _187  and  _188
REMARK   80  A    between atoms: _187  and  _190
REMARK   81  A    between atoms: _190  and  _191
REMARK   82  A    between atoms: _191  and  _192
REMARK   83  A    between atoms: _192  and  _193
REMARK   84  A    between atoms: _193  and  CA_271
REMARK   85  A    between atoms: _195  and  _197
REMARK   86  A    between atoms: _197  and  _198
REMARK   87  A    between atoms: _197  and  _200
REMARK   88  A    between atoms: _200  and  _201
REMARK   89  A    between atoms: _201  and  _202
REMARK   90  A    between atoms: _209  and  _210
REMARK   91  A    between atoms: _216  and  _218
REMARK   92  A    between atoms: _218  and  _219
REMARK   93  A    between atoms: _218  and  _221
REMARK   94  A    between atoms: _221  and  _222
REMARK   95  A    between atoms: _222  and  _223
REMARK   96  A    between atoms: _223  and  _224
REMARK   97  A    between atoms: _224  and  _225
REMARK   98  A    between atoms: _229  and  _231
REMARK   99  A    between atoms: _231  and  _232
REMARK  100  A    between atoms: _231  and  _234
REMARK  101  A    between atoms: _234  and  _235
REMARK  102  A    between atoms: _241  and  _243
REMARK  103  A    between atoms: _243  and  _244
REMARK  104  A    between atoms: _243  and  _246
REMARK  105  A    between atoms: _246  and  _247
REMARK  106  A    between atoms: _250  and  _252
REMARK  107  A    between atoms: _252  and  _253
REMARK  108  A    between atoms: _252  and  _255
REMARK  109  A    between atoms: _255  and  _256
REMARK  110  A    between atoms: _258  and  _260
REMARK  111  A    between atoms: _260  and  _261
REMARK  112  A    between atoms: _260  and  _263
REMARK  113  A    between atoms: _263  and  _264
REMARK  114  A    between atoms: _264  and  _265
REMARK  115  A    between atoms: _265  and  _266
REMARK  116  A    between atoms: _265  and  _267
REMARK  117  A    between atoms: _266  and  CA_271
REMARK                            x       y       z     vdW  Elec       q    Type
REMARK                         _______ _______ _______ _____ _____    ______ ____
ROOT
ATOM      1  CA  PHE A   2       7.313  16.361  58.823  0.00  0.00    +0.153 C 
ENDROOT
BRANCH   1   4
ATOM      2  C   LYS A   1       8.200  17.427  60.836  0.00  0.00    +0.238 C 
ATOM      3  O   LYS A   1       9.371  17.394  60.437  0.00  0.00    -0.274 OA
ATOM      4  N   PHE A   2       7.170  16.979  60.129  0.00  0.00    -0.297 N 
ATOM      5  H   PHE A   2       6.215  17.075  60.530  0.00  0.00    +0.150 HD
BRANCH   2   6
ATOM      6  CA  LYS A   1       7.823  18.008  62.197  0.00  0.00    +0.145 C 
BRANCH   6   7
ATOM      7  N   LYS A   1       7.129  17.020  63.025  0.00  0.00    -0.238 NA
ATOM      8  H   LYS A   1       6.197  17.274  63.409  0.00  0.00    +0.142 HD
ENDBRANCH   6   7
BRANCH   6   9
ATOM      9  CB  LYS A   1       9.037  18.608  62.930  0.00  0.00    +0.026 C 
BRANCH   9  10
ATOM     10  CG  LYS A   1       8.667  19.722  63.904  0.00  0.00    -0.000 C 
BRANCH  10  11
ATOM     11  CD  LYS A   1       9.895  20.332  64.597  0.00  0.00    -0.024 C 
BRANCH  11  12
ATOM     12  CE  LYS A   1      10.939  20.858  63.626  0.00  0.00    -0.086 C 
BRANCH  12  13
ATOM     13  NZ  LYS A   1      10.473  22.026  62.835  0.00  0.00    +0.380 N 
ATOM     14  HZ1 LYS A   1      10.225  22.803  63.480  0.00  0.00    -0.089 HD
ATOM     15  HZ2 LYS A   1       9.637  21.755  62.279  0.00  0.00    -0.089 HD
ATOM     16  HZ3 LYS A   1      11.232  22.334  62.194  0.00  0.00    -0.089 HD
ENDBRANCH  12  13
ENDBRANCH  11  12
ENDBRANCH  10  11
ENDBRANCH   9  10
ENDBRANCH   6   9
ENDBRANCH   2   6
ENDBRANCH   1   4
BRANCH   1  17
ATOM     17  C   PHE A   2       7.529  17.391  57.692  0.00  0.00    +0.241 C 
ATOM     18  O   PHE A   2       7.322  18.590  57.868  0.00  0.00    -0.273 OA
ATOM     19  N   ASP A   3       7.937  16.903  56.522  0.00  0.00    -0.298 N 
ATOM     20  H   ASP A   3       8.021  15.873  56.406  0.00  0.00    +0.150 HD
BRANCH  19  21
ATOM     21  CA  ASP A   3       8.269  17.772  55.399  0.00  0.00    +0.148 C 
BRANCH  21  22
ATOM     22  C   ASP A   3       7.727  17.095  54.147  0.00  0.00    +0.227 C 
ATOM     23  O   ASP A   3       8.161  16.007  53.792  0.00  0.00    -0.286 OA
ENDBRANCH  21  22
BRANCH  21  24
ATOM     24  CB  ASP A   3       9.784  17.918  55.343  0.00  0.00    +0.142 C 
BRANCH  24  25
ATOM     25  CG  ASP A   3      10.289  18.712  54.150  0.00  0.00    +0.367 C 
ATOM     26  OD2 ASP A   3      11.487  19.098  54.206  0.00  0.00    -0.246 OA
ATOM     27  OD1 ASP A   3       9.545  18.959  53.170  0.00  0.00    -0.246 OA
ENDBRANCH  24  25
ENDBRANCH  21  24
ENDBRANCH  19  21
ENDBRANCH   1  17
BRANCH   1  28
ATOM     28  CB  PHE A   2       6.056  15.535  58.541  0.00  0.00    +0.055 C 
BRANCH  28  29
ATOM     29  CG  PHE A   2       5.757  14.485  59.585  0.00  0.00    -0.020 A 
ATOM     30  CD2 PHE A   2       6.764  13.762  60.179  0.00  0.00    -0.004 A 
ATOM     31  CE2 PHE A   2       6.478  12.764  61.109  0.00  0.00    -0.000 A 
ATOM     32  CZ  PHE A   2       5.184  12.491  61.455  0.00  0.00    -0.000 A 
ATOM     33  CE1 PHE A   2       4.159  13.207  60.874  0.00  0.00    -0.000 A 
ATOM     34  CD1 PHE A   2       4.450  14.196  59.937  0.00  0.00    -0.004 A 
ENDBRANCH  28  29
ENDBRANCH   1  28
TORSDOF 15
REMARK  Name = ../refined-set-2016/4avs/4avs_pocket.pdb
REMARK  117 active torsions:
REMARK  status: ('A' for Active; 'I' for Inactive)
REMARK    1  A    between atoms: _1  and  _3
REMARK    2  A    between atoms: _3  and  _4
REMARK    3  A    between atoms: _7  and  _9
REMARK    4  A    between atoms: _9  and  _10
REMARK    5  A    between atoms: _9  and  _12
REMARK    6  A    between atoms: _12  and  _13
REMARK    7  A    between atoms: _18  and  _19
REMARK    8  A    between atoms: _21  and  _23
REMARK    9  A    between atoms: _23  and  _24
REMARK   10  A    between atoms: _23  and  _26
REMARK   11  A    between atoms: _26  and  _27
REMARK   12  A    between atoms: _29  and  _31
REMARK   13  A    between atoms: _31  and  _32
REMARK   14  A    between atoms: _31  and  _34
REMARK   15  A    between atoms: _34  and  _35
REMARK   16  A    between atoms: _37  and  _39
REMARK   17  A    between atoms: _39  and  _40
REMARK   18  A    between atoms: _39  and  _42
REMARK   19  A    between atoms: _42  and  _43
REMARK   20  A    between atoms: _48  and  _50
REMARK   21  A    between atoms: _50  and  _51
REMARK   22  A    between atoms: _50  and  _53
REMARK   23  A    between atoms: _53  and  _54
REMARK   24  A    between atoms: _57  and  _59
REMARK   25  A    between atoms: _59  and  _60
REMARK   26  A    between atoms: _59  and  _62
REMARK   27  A    between atoms: _62  and  _63
REMARK   28  A    between atoms: _68  and  _70
REMARK   29  A    between atoms: _70  and  _71
REMARK   30  A    between atoms: _70  and  _73
REMARK   31  A    between atoms: _73  and  _74
REMARK   32  A    between atoms: _77  and  _79
REMARK   33  A    between atoms: _79  and  _80
REMARK   34  A    between atoms: _79  and  _82
REMARK   35  A    between atoms: _85  and  _87
REMARK   36  A    between atoms: _87  and  _88
REMARK   37  A    between atoms: _87  and  _90
REMARK   38  A    between atoms: _90  and  _91
REMARK   39  A    between atoms: _96  and  _97
REMARK   40  A    between atoms: _99  and  _101
REMARK   41  A    between atoms: _101  and  _102
REMARK   42  A    between atoms: _101  and  _104
REMARK   43  A    between atoms: _104  and  _105
REMARK   44  A    between atoms: _105  and  _106
REMARK   45  A    between atoms: _106  and  _107
REMARK   46  A    between atoms: _107  and  _108
REMARK   47  A    between atoms: _112  and  _114
REMARK   48  A    between atoms: _114  and  _115
REMARK   49  A    between atoms: _114  and  _117
REMARK   50  A    between atoms: _117  and  _118
REMARK   51  A    between atoms: _118  and  _119
REMARK   52  A    between atoms: _122  and  _124
REMARK   53  A    between atoms: _124  and  _125
REMARK   54  A    between atoms: _124  and  _127
REMARK   55  A    between atoms: _127  and  _128
REMARK   56  A    between atoms: _130  and  _132
REMARK   57  A    between atoms: _132  and  _133
REMARK   58  A    between atoms: _132  and  _135
REMARK   59  A    between atoms: _135  and  _136
REMARK   60  A    between atoms: _141  and  _142
REMARK   61  A    between atoms: _144  and  _146
REMARK   62  A    between atoms: _146  and  _147
REMARK   63  A    between atoms: _146  and  _149
REMARK   64  A    between atoms: _149  and  _150
REMARK   65  A    between atoms: _150  and  _151
REMARK   66  A    between atoms: _151  and  _152
REMARK   67  A    between atoms: _161  and  _163
REMARK   68  A    between atoms: _163  and  _164
REMARK   69  A    between atoms: _163  and  _166
REMARK   70  A    between atoms: _166  and  _167
REMARK   71  A    between atoms: _172  and  _174
REMARK   72  A    between atoms: _174  and  _175
REMARK   73  A    between atoms: _174  and  _177
REMARK   74  A    between atoms: _177  and  _178
REMARK   75  A    between atoms: _178  and  _179
REMARK   76  A    between atoms: _179  and  _180
REMARK   77  A    between atoms: _180  and  _181
REMARK   78  A    between atoms: _185  and  _187
REMARK   79  A    between atoms: _187  and  _188
REMARK   80  A    between atoms: _187  and  _190
REMARK   81  A    between atoms: _190  and  _191
REMARK   82  A    between atoms: _191  and  _192
REMARK   83  A    between atoms: _192  and  _193
REMARK   84  A    between atoms: _193  and  CA_271
REMARK   85  A    between atoms: _195  and  _197
REMARK   86  A    between atoms: _197  and  _198
REMARK   87  A    between atoms: _197  and  _200
REMARK   88  A    between atoms: _200  and  _201
REMARK   89  A    between atoms: _201  and  _202
REMARK   90  A    between atoms: _209  and  _210
REMARK   91  A    between atoms: _216  and  _218
REMARK   92  A    between atoms: _218  and  _219
REMARK   93  A    between atoms: _218  and  _221
REMARK   94  A    between atoms: _221  and  _222
REMARK   95  A    between atoms: _222  and  _223
REMARK   96  A    between atoms: _223  and  _224
REMARK   97  A    between atoms: _224  and  _225
REMARK   98  A    between atoms: _229  and  _231
REMARK   99  A    between atoms: _231  and  _232
REMARK  100  A    between atoms: _231  and  _234
REMARK  101  A    between atoms: _234  and  _235
REMARK  102  A    between atoms: _241  and  _243
REMARK  103  A    between atoms: _243  and  _244
REMARK  104  A    between atoms: _243  and  _246
REMARK  105  A    between atoms: _246  and  _247
REMARK  106  A    between atoms: _250  and  _252
REMARK  107  A    between atoms: _252  and  _253
REMARK  108  A    between atoms: _252  and  _255
REMARK  109  A    between atoms: _255  and  _256
REMARK  110  A    between atoms: _258  and  _260
REMARK  111  A    between atoms: _260  and  _261
REMARK  112  A    between atoms: _260  and  _263
REMARK  113  A    between atoms: _263  and  _264
REMARK  114  A    between atoms: _264  and  _265
REMARK  115  A    between atoms: _265  and  _266
REMARK  116  A    between atoms: _265  and  _267
REMARK  117  A    between atoms: _266  and  CA_271
REMARK                            x       y       z     vdW  Elec       q    Type
REMARK                         _______ _______ _______ _____ _____    ______ ____
ROOT
ATOM      1  O   HOH     1      20.391  17.590  64.047  0.00  0.00    +0.000 OA
ENDROOT
TORSDOF 0
REMARK  Name = ../refined-set-2016/4avs/4avs_pocket.pdb
REMARK  117 active torsions:
REMARK  status: ('A' for Active; 'I' for Inactive)
REMARK    1  A    between atoms: _1  and  _3
REMARK    2  A    between atoms: _3  and  _4
REMARK    3  A    between atoms: _7  and  _9
REMARK    4  A    between atoms: _9  and  _10
REMARK    5  A    between atoms: _9  and  _12
REMARK    6  A    between atoms: _12  and  _13
REMARK    7  A    between atoms: _18  and  _19
REMARK    8  A    between atoms: _21  and  _23
REMARK    9  A    between atoms: _23  and  _24
REMARK   10  A    between atoms: _23  and  _26
REMARK   11  A    between atoms: _26  and  _27
REMARK   12  A    between atoms: _29  and  _31
REMARK   13  A    between atoms: _31  and  _32
REMARK   14  A    between atoms: _31  and  _34
REMARK   15  A    between atoms: _34  and  _35
REMARK   16  A    between atoms: _37  and  _39
REMARK   17  A    between atoms: _39  and  _40
REMARK   18  A    between atoms: _39  and  _42
REMARK   19  A    between atoms: _42  and  _43
REMARK   20  A    between atoms: _48  and  _50
REMARK   21  A    between atoms: _50  and  _51
REMARK   22  A    between atoms: _50  and  _53
REMARK   23  A    between atoms: _53  and  _54
REMARK   24  A    between atoms: _57  and  _59
REMARK   25  A    between atoms: _59  and  _60
REMARK   26  A    between atoms: _59  and  _62
REMARK   27  A    between atoms: _62  and  _63
REMARK   28  A    between atoms: _68  and  _70
REMARK   29  A    between atoms: _70  and  _71
REMARK   30  A    between atoms: _70  and  _73
REMARK   31  A    between atoms: _73  and  _74
REMARK   32  A    between atoms: _77  and  _79
REMARK   33  A    between atoms: _79  and  _80
REMARK   34  A    between atoms: _79  and  _82
REMARK   35  A    between atoms: _85  and  _87
REMARK   36  A    between atoms: _87  and  _88
REMARK   37  A    between atoms: _87  and  _90
REMARK   38  A    between atoms: _90  and  _91
REMARK   39  A    between atoms: _96  and  _97
REMARK   40  A    between atoms: _99  and  _101
REMARK   41  A    between atoms: _101  and  _102
REMARK   42  A    between atoms: _101  and  _104
REMARK   43  A    between atoms: _104  and  _105
REMARK   44  A    between atoms: _105  and  _106
REMARK   45  A    between atoms: _106  and  _107
REMARK   46  A    between atoms: _107  and  _108
REMARK   47  A    between atoms: _112  and  _114
REMARK   48  A    between atoms: _114  and  _115
REMARK   49  A    between atoms: _114  and  _117
REMARK   50  A    between atoms: _117  and  _118
REMARK   51  A    between atoms: _118  and  _119
REMARK   52  A    between atoms: _122  and  _124
REMARK   53  A    between atoms: _124  and  _125
REMARK   54  A    between atoms: _124  and  _127
REMARK   55  A    between atoms: _127  and  _128
REMARK   56  A    between atoms: _130  and  _132
REMARK   57  A    between atoms: _132  and  _133
REMARK   58  A    between atoms: _132  and  _135
REMARK   59  A    between atoms: _135  and  _136
REMARK   60  A    between atoms: _141  and  _142
REMARK   61  A    between atoms: _144  and  _146
REMARK   62  A    between atoms: _146  and  _147
REMARK   63  A    between atoms: _146  and  _149
REMARK   64  A    between atoms: _149  and  _150
REMARK   65  A    between atoms: _150  and  _151
REMARK   66  A    between atoms: _151  and  _152
REMARK   67  A    between atoms: _161  and  _163
REMARK   68  A    between atoms: _163  and  _164
REMARK   69  A    between atoms: _163  and  _166
REMARK   70  A    between atoms: _166  and  _167
REMARK   71  A    between atoms: _172  and  _174
REMARK   72  A    between atoms: _174  and  _175
REMARK   73  A    between atoms: _174  and  _177
REMARK   74  A    between atoms: _177  and  _178
REMARK   75  A    between atoms: _178  and  _179
REMARK   76  A    between atoms: _179  and  _180
REMARK   77  A    between atoms: _180  and  _181
REMARK   78  A    between atoms: _185  and  _187
REMARK   79  A    between atoms: _187  and  _188
REMARK   80  A    between atoms: _187  and  _190
REMARK   81  A    between atoms: _190  and  _191
REMARK   82  A    between atoms: _191  and  _192
REMARK   83  A    between atoms: _192  and  _193
REMARK   84  A    between atoms: _193  and  CA_271
REMARK   85  A    between atoms: _195  and  _197
REMARK   86  A    between atoms: _197  and  _198
REMARK   87  A    between atoms: _197  and  _200
REMARK   88  A    between atoms: _200  and  _201
REMARK   89  A    between atoms: _201  and  _202
REMARK   90  A    between atoms: _209  and  _210
REMARK   91  A    between atoms: _216  and  _218
REMARK   92  A    between atoms: _218  and  _219
REMARK   93  A    between atoms: _218  and  _221
REMARK   94  A    between atoms: _221  and  _222
REMARK   95  A    between atoms: _222  and  _223
REMARK   96  A    between atoms: _223  and  _224
REMARK   97  A    between atoms: _224  and  _225
REMARK   98  A    between atoms: _229  and  _231
REMARK   99  A    between atoms: _231  and  _232
REMARK  100  A    between atoms: _231  and  _234
REMARK  101  A    between atoms: _234  and  _235
REMARK  102  A    between atoms: _241  and  _243
REMARK  103  A    between atoms: _243  and  _244
REMARK  104  A    between atoms: _243  and  _246
REMARK  105  A    between atoms: _246  and  _247
REMARK  106  A    between atoms: _250  and  _252
REMARK  107  A    between atoms: _252  and  _253
REMARK  108  A    between atoms: _252  and  _255
REMARK  109  A    between atoms: _255  and  _256
REMARK  110  A    between atoms: _258  and  _260
REMARK  111  A    between atoms: _260  and  _261
REMARK  112  A    between atoms: _260  and  _263
REMARK  113  A    between atoms: _263  and  _264
REMARK  114  A    between atoms: _264  and  _265
REMARK  115  A    between atoms: _265  and  _266
REMARK  116  A    between atoms: _265  and  _267
REMARK  117  A    between atoms: _266  and  CA_271
REMARK                            x       y       z     vdW  Elec       q    Type
REMARK                         _______ _______ _______ _____ _____    ______ ____
ROOT
ATOM      1  O   HOH     1      14.555  10.535  61.006  0.00  0.00    +0.000 OA
ENDROOT
TORSDOF 0
REMARK  Name = ../refined-set-2016/4avs/4avs_pocket.pdb
REMARK  117 active torsions:
REMARK  status: ('A' for Active; 'I' for Inactive)
REMARK    1  A    between atoms: _1  and  _3
REMARK    2  A    between atoms: _3  and  _4
REMARK    3  A    between atoms: _7  and  _9
REMARK    4  A    between atoms: _9  and  _10
REMARK    5  A    between atoms: _9  and  _12
REMARK    6  A    between atoms: _12  and  _13
REMARK    7  A    between atoms: _18  and  _19
REMARK    8  A    between atoms: _21  and  _23
REMARK    9  A    between atoms: _23  and  _24
REMARK   10  A    between atoms: _23  and  _26
REMARK   11  A    between atoms: _26  and  _27
REMARK   12  A    between atoms: _29  and  _31
REMARK   13  A    between atoms: _31  and  _32
REMARK   14  A    between atoms: _31  and  _34
REMARK   15  A    between atoms: _34  and  _35
REMARK   16  A    between atoms: _37  and  _39
REMARK   17  A    between atoms: _39  and  _40
REMARK   18  A    between atoms: _39  and  _42
REMARK   19  A    between atoms: _42  and  _43
REMARK   20  A    between atoms: _48  and  _50
REMARK   21  A    between atoms: _50  and  _51
REMARK   22  A    between atoms: _50  and  _53
REMARK   23  A    between atoms: _53  and  _54
REMARK   24  A    between atoms: _57  and  _59
REMARK   25  A    between atoms: _59  and  _60
REMARK   26  A    between atoms: _59  and  _62
REMARK   27  A    between atoms: _62  and  _63
REMARK   28  A    between atoms: _68  and  _70
REMARK   29  A    between atoms: _70  and  _71
REMARK   30  A    between atoms: _70  and  _73
REMARK   31  A    between atoms: _73  and  _74
REMARK   32  A    between atoms: _77  and  _79
REMARK   33  A    between atoms: _79  and  _80
REMARK   34  A    between atoms: _79  and  _82
REMARK   35  A    between atoms: _85  and  _87
REMARK   36  A    between atoms: _87  and  _88
REMARK   37  A    between atoms: _87  and  _90
REMARK   38  A    between atoms: _90  and  _91
REMARK   39  A    between atoms: _96  and  _97
REMARK   40  A    between atoms: _99  and  _101
REMARK   41  A    between atoms: _101  and  _102
REMARK   42  A    between atoms: _101  and  _104
REMARK   43  A    between atoms: _104  and  _105
REMARK   44  A    between atoms: _105  and  _106
REMARK   45  A    between atoms: _106  and  _107
REMARK   46  A    between atoms: _107  and  _108
REMARK   47  A    between atoms: _112  and  _114
REMARK   48  A    between atoms: _114  and  _115
REMARK   49  A    between atoms: _114  and  _117
REMARK   50  A    between atoms: _117  and  _118
REMARK   51  A    between atoms: _118  and  _119
REMARK   52  A    between atoms: _122  and  _124
REMARK   53  A    between atoms: _124  and  _125
REMARK   54  A    between atoms: _124  and  _127
REMARK   55  A    between atoms: _127  and  _128
REMARK   56  A    between atoms: _130  and  _132
REMARK   57  A    between atoms: _132  and  _133
REMARK   58  A    between atoms: _132  and  _135
REMARK   59  A    between atoms: _135  and  _136
REMARK   60  A    between atoms: _141  and  _142
REMARK   61  A    between atoms: _144  and  _146
REMARK   62  A    between atoms: _146  and  _147
REMARK   63  A    between atoms: _146  and  _149
REMARK   64  A    between atoms: _149  and  _150
REMARK   65  A    between atoms: _150  and  _151
REMARK   66  A    between atoms: _151  and  _152
REMARK   67  A    between atoms: _161  and  _163
REMARK   68  A    between atoms: _163  and  _164
REMARK   69  A    between atoms: _163  and  _166
REMARK   70  A    between atoms: _166  and  _167
REMARK   71  A    between atoms: _172  and  _174
REMARK   72  A    between atoms: _174  and  _175
REMARK   73  A    between atoms: _174  and  _177
REMARK   74  A    between atoms: _177  and  _178
REMARK   75  A    between atoms: _178  and  _179
REMARK   76  A    between atoms: _179  and  _180
REMARK   77  A    between atoms: _180  and  _181
REMARK   78  A    between atoms: _185  and  _187
REMARK   79  A    between atoms: _187  and  _188
REMARK   80  A    between atoms: _187  and  _190
REMARK   81  A    between atoms: _190  and  _191
REMARK   82  A    between atoms: _191  and  _192
REMARK   83  A    between atoms: _192  and  _193
REMARK   84  A    between atoms: _193  and  CA_271
REMARK   85  A    between atoms: _195  and  _197
REMARK   86  A    between atoms: _197  and  _198
REMARK   87  A    between atoms: _197  and  _200
REMARK   88  A    between atoms: _200  and  _201
REMARK   89  A    between atoms: _201  and  _202
REMARK   90  A    between atoms: _209  and  _210
REMARK   91  A    between atoms: _216  and  _218
REMARK   92  A    between atoms: _218  and  _219
REMARK   93  A    between atoms: _218  and  _221
REMARK   94  A    between atoms: _221  and  _222
REMARK   95  A    between atoms: _222  and  _223
REMARK   96  A    between atoms: _223  and  _224
REMARK   97  A    between atoms: _224  and  _225
REMARK   98  A    between atoms: _229  and  _231
REMARK   99  A    between atoms: _231  and  _232
REMARK  100  A    between atoms: _231  and  _234
REMARK  101  A    between atoms: _234  and  _235
REMARK  102  A    between atoms: _241  and  _243
REMARK  103  A    between atoms: _243  and  _244
REMARK  104  A    between atoms: _243  and  _246
REMARK  105  A    between atoms: _246  and  _247
REMARK  106  A    between atoms: _250  and  _252
REMARK  107  A    between atoms: _252  and  _253
REMARK  108  A    between atoms: _252  and  _255
REMARK  109  A    between atoms: _255  and  _256
REMARK  110  A    between atoms: _258  and  _260
REMARK  111  A    between atoms: _260  and  _261
REMARK  112  A    between atoms: _260  and  _263
REMARK  113  A    between atoms: _263  and  _264
REMARK  114  A    between atoms: _264  and  _265
REMARK  115  A    between atoms: _265  and  _266
REMARK  116  A    between atoms: _265  and  _267
REMARK  117  A    between atoms: _266  and  CA_271
REMARK                            x       y       z     vdW  Elec       q    Type
REMARK                         _______ _______ _______ _____ _____    ______ ____
ROOT
ATOM      1  O   HOH     1      19.389  16.700  61.860  0.00  0.00    +0.000 OA
ENDROOT
TORSDOF 0
REMARK  Name = ../refined-set-2016/4avs/4avs_pocket.pdb
REMARK  117 active torsions:
REMARK  status: ('A' for Active; 'I' for Inactive)
REMARK    1  A    between atoms: _1  and  _3
REMARK    2  A    between atoms: _3  and  _4
REMARK    3  A    between atoms: _7  and  _9
REMARK    4  A    between atoms: _9  and  _10
REMARK    5  A    between atoms: _9  and  _12
REMARK    6  A    between atoms: _12  and  _13
REMARK    7  A    between atoms: _18  and  _19
REMARK    8  A    between atoms: _21  and  _23
REMARK    9  A    between atoms: _23  and  _24
REMARK   10  A    between atoms: _23  and  _26
REMARK   11  A    between atoms: _26  and  _27
REMARK   12  A    between atoms: _29  and  _31
REMARK   13  A    between atoms: _31  and  _32
REMARK   14  A    between atoms: _31  and  _34
REMARK   15  A    between atoms: _34  and  _35
REMARK   16  A    between atoms: _37  and  _39
REMARK   17  A    between atoms: _39  and  _40
REMARK   18  A    between atoms: _39  and  _42
REMARK   19  A    between atoms: _42  and  _43
REMARK   20  A    between atoms: _48  and  _50
REMARK   21  A    between atoms: _50  and  _51
REMARK   22  A    between atoms: _50  and  _53
REMARK   23  A    between atoms: _53  and  _54
REMARK   24  A    between atoms: _57  and  _59
REMARK   25  A    between atoms: _59  and  _60
REMARK   26  A    between atoms: _59  and  _62
REMARK   27  A    between atoms: _62  and  _63
REMARK   28  A    between atoms: _68  and  _70
REMARK   29  A    between atoms: _70  and  _71
REMARK   30  A    between atoms: _70  and  _73
REMARK   31  A    between atoms: _73  and  _74
REMARK   32  A    between atoms: _77  and  _79
REMARK   33  A    between atoms: _79  and  _80
REMARK   34  A    between atoms: _79  and  _82
REMARK   35  A    between atoms: _85  and  _87
REMARK   36  A    between atoms: _87  and  _88
REMARK   37  A    between atoms: _87  and  _90
REMARK   38  A    between atoms: _90  and  _91
REMARK   39  A    between atoms: _96  and  _97
REMARK   40  A    between atoms: _99  and  _101
REMARK   41  A    between atoms: _101  and  _102
REMARK   42  A    between atoms: _101  and  _104
REMARK   43  A    between atoms: _104  and  _105
REMARK   44  A    between atoms: _105  and  _106
REMARK   45  A    between atoms: _106  and  _107
REMARK   46  A    between atoms: _107  and  _108
REMARK   47  A    between atoms: _112  and  _114
REMARK   48  A    between atoms: _114  and  _115
REMARK   49  A    between atoms: _114  and  _117
REMARK   50  A    between atoms: _117  and  _118
REMARK   51  A    between atoms: _118  and  _119
REMARK   52  A    between atoms: _122  and  _124
REMARK   53  A    between atoms: _124  and  _125
REMARK   54  A    between atoms: _124  and  _127
REMARK   55  A    between atoms: _127  and  _128
REMARK   56  A    between atoms: _130  and  _132
REMARK   57  A    between atoms: _132  and  _133
REMARK   58  A    between atoms: _132  and  _135
REMARK   59  A    between atoms: _135  and  _136
REMARK   60  A    between atoms: _141  and  _142
REMARK   61  A    between atoms: _144  and  _146
REMARK   62  A    between atoms: _146  and  _147
REMARK   63  A    between atoms: _146  and  _149
REMARK   64  A    between atoms: _149  and  _150
REMARK   65  A    between atoms: _150  and  _151
REMARK   66  A    between atoms: _151  and  _152
REMARK   67  A    between atoms: _161  and  _163
REMARK   68  A    between atoms: _163  and  _164
REMARK   69  A    between atoms: _163  and  _166
REMARK   70  A    between atoms: _166  and  _167
REMARK   71  A    between atoms: _172  and  _174
REMARK   72  A    between atoms: _174  and  _175
REMARK   73  A    between atoms: _174  and  _177
REMARK   74  A    between atoms: _177  and  _178
REMARK   75  A    between atoms: _178  and  _179
REMARK   76  A    between atoms: _179  and  _180
REMARK   77  A    between atoms: _180  and  _181
REMARK   78  A    between atoms: _185  and  _187
REMARK   79  A    between atoms: _187  and  _188
REMARK   80  A    between atoms: _187  and  _190
REMARK   81  A    between atoms: _190  and  _191
REMARK   82  A    between atoms: _191  and  _192
REMARK   83  A    between atoms: _192  and  _193
REMARK   84  A    between atoms: _193  and  CA_271
REMARK   85  A    between atoms: _195  and  _197
REMARK   86  A    between atoms: _197  and  _198
REMARK   87  A    between atoms: _197  and  _200
REMARK   88  A    between atoms: _200  and  _201
REMARK   89  A    between atoms: _201  and  _202
REMARK   90  A    between atoms: _209  and  _210
REMARK   91  A    between atoms: _216  and  _218
REMARK   92  A    between atoms: _218  and  _219
REMARK   93  A    between atoms: _218  and  _221
REMARK   94  A    between atoms: _221  and  _222
REMARK   95  A    between atoms: _222  and  _223
REMARK   96  A    between atoms: _223  and  _224
REMARK   97  A    between atoms: _224  and  _225
REMARK   98  A    between atoms: _229  and  _231
REMARK   99  A    between atoms: _231  and  _232
REMARK  100  A    between atoms: _231  and  _234
REMARK  101  A    between atoms: _234  and  _235
REMARK  102  A    between atoms: _241  and  _243
REMARK  103  A    between atoms: _243  and  _244
REMARK  104  A    between atoms: _243  and  _246
REMARK  105  A    between atoms: _246  and  _247
REMARK  106  A    between atoms: _250  and  _252
REMARK  107  A    between atoms: _252  and  _253
REMARK  108  A    between atoms: _252  and  _255
REMARK  109  A    between atoms: _255  and  _256
REMARK  110  A    between atoms: _258  and  _260
REMARK  111  A    between atoms: _260  and  _261
REMARK  112  A    between atoms: _260  and  _263
REMARK  113  A    between atoms: _263  and  _264
REMARK  114  A    between atoms: _264  and  _265
REMARK  115  A    between atoms: _265  and  _266
REMARK  116  A    between atoms: _265  and  _267
REMARK  117  A    between atoms: _266  and  CA_271
REMARK                            x       y       z     vdW  Elec       q    Type
REMARK                         _______ _______ _______ _____ _____    ______ ____
ROOT
ATOM      1  O   HOH     1      21.787  14.591  59.866  0.00  0.00    +0.000 OA
ENDROOT
TORSDOF 0
REMARK  Name = ../refined-set-2016/4avs/4avs_pocket.pdb
REMARK  117 active torsions:
REMARK  status: ('A' for Active; 'I' for Inactive)
REMARK    1  A    between atoms: _1  and  _3
REMARK    2  A    between atoms: _3  and  _4
REMARK    3  A    between atoms: _7  and  _9
REMARK    4  A    between atoms: _9  and  _10
REMARK    5  A    between atoms: _9  and  _12
REMARK    6  A    between atoms: _12  and  _13
REMARK    7  A    between atoms: _18  and  _19
REMARK    8  A    between atoms: _21  and  _23
REMARK    9  A    between atoms: _23  and  _24
REMARK   10  A    between atoms: _23  and  _26
REMARK   11  A    between atoms: _26  and  _27
REMARK   12  A    between atoms: _29  and  _31
REMARK   13  A    between atoms: _31  and  _32
REMARK   14  A    between atoms: _31  and  _34
REMARK   15  A    between atoms: _34  and  _35
REMARK   16  A    between atoms: _37  and  _39
REMARK   17  A    between atoms: _39  and  _40
REMARK   18  A    between atoms: _39  and  _42
REMARK   19  A    between atoms: _42  and  _43
REMARK   20  A    between atoms: _48  and  _50
REMARK   21  A    between atoms: _50  and  _51
REMARK   22  A    between atoms: _50  and  _53
REMARK   23  A    between atoms: _53  and  _54
REMARK   24  A    between atoms: _57  and  _59
REMARK   25  A    between atoms: _59  and  _60
REMARK   26  A    between atoms: _59  and  _62
REMARK   27  A    between atoms: _62  and  _63
REMARK   28  A    between atoms: _68  and  _70
REMARK   29  A    between atoms: _70  and  _71
REMARK   30  A    between atoms: _70  and  _73
REMARK   31  A    between atoms: _73  and  _74
REMARK   32  A    between atoms: _77  and  _79
REMARK   33  A    between atoms: _79  and  _80
REMARK   34  A    between atoms: _79  and  _82
REMARK   35  A    between atoms: _85  and  _87
REMARK   36  A    between atoms: _87  and  _88
REMARK   37  A    between atoms: _87  and  _90
REMARK   38  A    between atoms: _90  and  _91
REMARK   39  A    between atoms: _96  and  _97
REMARK   40  A    between atoms: _99  and  _101
REMARK   41  A    between atoms: _101  and  _102
REMARK   42  A    between atoms: _101  and  _104
REMARK   43  A    between atoms: _104  and  _105
REMARK   44  A    between atoms: _105  and  _106
REMARK   45  A    between atoms: _106  and  _107
REMARK   46  A    between atoms: _107  and  _108
REMARK   47  A    between atoms: _112  and  _114
REMARK   48  A    between atoms: _114  and  _115
REMARK   49  A    between atoms: _114  and  _117
REMARK   50  A    between atoms: _117  and  _118
REMARK   51  A    between atoms: _118  and  _119
REMARK   52  A    between atoms: _122  and  _124
REMARK   53  A    between atoms: _124  and  _125
REMARK   54  A    between atoms: _124  and  _127
REMARK   55  A    between atoms: _127  and  _128
REMARK   56  A    between atoms: _130  and  _132
REMARK   57  A    between atoms: _132  and  _133
REMARK   58  A    between atoms: _132  and  _135
REMARK   59  A    between atoms: _135  and  _136
REMARK   60  A    between atoms: _141  and  _142
REMARK   61  A    between atoms: _144  and  _146
REMARK   62  A    between atoms: _146  and  _147
REMARK   63  A    between atoms: _146  and  _149
REMARK   64  A    between atoms: _149  and  _150
REMARK   65  A    between atoms: _150  and  _151
REMARK   66  A    between atoms: _151  and  _152
REMARK   67  A    between atoms: _161  and  _163
REMARK   68  A    between atoms: _163  and  _164
REMARK   69  A    between atoms: _163  and  _166
REMARK   70  A    between atoms: _166  and  _167
REMARK   71  A    between atoms: _172  and  _174
REMARK   72  A    between atoms: _174  and  _175
REMARK   73  A    between atoms: _174  and  _177
REMARK   74  A    between atoms: _177  and  _178
REMARK   75  A    between atoms: _178  and  _179
REMARK   76  A    between atoms: _179  and  _180
REMARK   77  A    between atoms: _180  and  _181
REMARK   78  A    between atoms: _185  and  _187
REMARK   79  A    between atoms: _187  and  _188
REMARK   80  A    between atoms: _187  and  _190
REMARK   81  A    between atoms: _190  and  _191
REMARK   82  A    between atoms: _191  and  _192
REMARK   83  A    between atoms: _192  and  _193
REMARK   84  A    between atoms: _193  and  CA_271
REMARK   85  A    between atoms: _195  and  _197
REMARK   86  A    between atoms: _197  and  _198
REMARK   87  A    between atoms: _197  and  _200
REMARK   88  A    between atoms: _200  and  _201
REMARK   89  A    between atoms: _201  and  _202
REMARK   90  A    between atoms: _209  and  _210
REMARK   91  A    between atoms: _216  and  _218
REMARK   92  A    between atoms: _218  and  _219
REMARK   93  A    between atoms: _218  and  _221
REMARK   94  A    between atoms: _221  and  _222
REMARK   95  A    between atoms: _222  and  _223
REMARK   96  A    between atoms: _223  and  _224
REMARK   97  A    between atoms: _224  and  _225
REMARK   98  A    between atoms: _229  and  _231
REMARK   99  A    between atoms: _231  and  _232
REMARK  100  A    between atoms: _231  and  _234
REMARK  101  A    between atoms: _234  and  _235
REMARK  102  A    between atoms: _241  and  _243
REMARK  103  A    between atoms: _243  and  _244
REMARK  104  A    between atoms: _243  and  _246
REMARK  105  A    between atoms: _246  and  _247
REMARK  106  A    between atoms: _250  and  _252
REMARK  107  A    between atoms: _252  and  _253
REMARK  108  A    between atoms: _252  and  _255
REMARK  109  A    between atoms: _255  and  _256
REMARK  110  A    between atoms: _258  and  _260
REMARK  111  A    between atoms: _260  and  _261
REMARK  112  A    between atoms: _260  and  _263
REMARK  113  A    between atoms: _263  and  _264
REMARK  114  A    between atoms: _264  and  _265
REMARK  115  A    between atoms: _265  and  _266
REMARK  116  A    between atoms: _265  and  _267
REMARK  117  A    between atoms: _266  and  CA_271
REMARK                            x       y       z     vdW  Elec       q    Type
REMARK                         _______ _______ _______ _____ _____    ______ ____
ROOT
ATOM      1  O   HOH     1      16.930  15.662  50.242  0.00  0.00    +0.000 OA
ENDROOT
TORSDOF 0
REMARK  Name = ../refined-set-2016/4avs/4avs_pocket.pdb
REMARK  117 active torsions:
REMARK  status: ('A' for Active; 'I' for Inactive)
REMARK    1  A    between atoms: _1  and  _3
REMARK    2  A    between atoms: _3  and  _4
REMARK    3  A    between atoms: _7  and  _9
REMARK    4  A    between atoms: _9  and  _10
REMARK    5  A    between atoms: _9  and  _12
REMARK    6  A    between atoms: _12  and  _13
REMARK    7  A    between atoms: _18  and  _19
REMARK    8  A    between atoms: _21  and  _23
REMARK    9  A    between atoms: _23  and  _24
REMARK   10  A    between atoms: _23  and  _26
REMARK   11  A    between atoms: _26  and  _27
REMARK   12  A    between atoms: _29  and  _31
REMARK   13  A    between atoms: _31  and  _32
REMARK   14  A    between atoms: _31  and  _34
REMARK   15  A    between atoms: _34  and  _35
REMARK   16  A    between atoms: _37  and  _39
REMARK   17  A    between atoms: _39  and  _40
REMARK   18  A    between atoms: _39  and  _42
REMARK   19  A    between atoms: _42  and  _43
REMARK   20  A    between atoms: _48  and  _50
REMARK   21  A    between atoms: _50  and  _51
REMARK   22  A    between atoms: _50  and  _53
REMARK   23  A    between atoms: _53  and  _54
REMARK   24  A    between atoms: _57  and  _59
REMARK   25  A    between atoms: _59  and  _60
REMARK   26  A    between atoms: _59  and  _62
REMARK   27  A    between atoms: _62  and  _63
REMARK   28  A    between atoms: _68  and  _70
REMARK   29  A    between atoms: _70  and  _71
REMARK   30  A    between atoms: _70  and  _73
REMARK   31  A    between atoms: _73  and  _74
REMARK   32  A    between atoms: _77  and  _79
REMARK   33  A    between atoms: _79  and  _80
REMARK   34  A    between atoms: _79  and  _82
REMARK   35  A    between atoms: _85  and  _87
REMARK   36  A    between atoms: _87  and  _88
REMARK   37  A    between atoms: _87  and  _90
REMARK   38  A    between atoms: _90  and  _91
REMARK   39  A    between atoms: _96  and  _97
REMARK   40  A    between atoms: _99  and  _101
REMARK   41  A    between atoms: _101  and  _102
REMARK   42  A    between atoms: _101  and  _104
REMARK   43  A    between atoms: _104  and  _105
REMARK   44  A    between atoms: _105  and  _106
REMARK   45  A    between atoms: _106  and  _107
REMARK   46  A    between atoms: _107  and  _108
REMARK   47  A    between atoms: _112  and  _114
REMARK   48  A    between atoms: _114  and  _115
REMARK   49  A    between atoms: _114  and  _117
REMARK   50  A    between atoms: _117  and  _118
REMARK   51  A    between atoms: _118  and  _119
REMARK   52  A    between atoms: _122  and  _124
REMARK   53  A    between atoms: _124  and  _125
REMARK   54  A    between atoms: _124  and  _127
REMARK   55  A    between atoms: _127  and  _128
REMARK   56  A    between atoms: _130  and  _132
REMARK   57  A    between atoms: _132  and  _133
REMARK   58  A    between atoms: _132  and  _135
REMARK   59  A    between atoms: _135  and  _136
REMARK   60  A    between atoms: _141  and  _142
REMARK   61  A    between atoms: _144  and  _146
REMARK   62  A    between atoms: _146  and  _147
REMARK   63  A    between atoms: _146  and  _149
REMARK   64  A    between atoms: _149  and  _150
REMARK   65  A    between atoms: _150  and  _151
REMARK   66  A    between atoms: _151  and  _152
REMARK   67  A    between atoms: _161  and  _163
REMARK   68  A    between atoms: _163  and  _164
REMARK   69  A    between atoms: _163  and  _166
REMARK   70  A    between atoms: _166  and  _167
REMARK   71  A    between atoms: _172  and  _174
REMARK   72  A    between atoms: _174  and  _175
REMARK   73  A    between atoms: _174  and  _177
REMARK   74  A    between atoms: _177  and  _178
REMARK   75  A    between atoms: _178  and  _179
REMARK   76  A    between atoms: _179  and  _180
REMARK   77  A    between atoms: _180  and  _181
REMARK   78  A    between atoms: _185  and  _187
REMARK   79  A    between atoms: _187  and  _188
REMARK   80  A    between atoms: _187  and  _190
REMARK   81  A    between atoms: _190  and  _191
REMARK   82  A    between atoms: _191  and  _192
REMARK   83  A    between atoms: _192  and  _193
REMARK   84  A    between atoms: _193  and  CA_271
REMARK   85  A    between atoms: _195  and  _197
REMARK   86  A    between atoms: _197  and  _198
REMARK   87  A    between atoms: _197  and  _200
REMARK   88  A    between atoms: _200  and  _201
REMARK   89  A    between atoms: _201  and  _202
REMARK   90  A    between atoms: _209  and  _210
REMARK   91  A    between atoms: _216  and  _218
REMARK   92  A    between atoms: _218  and  _219
REMARK   93  A    between atoms: _218  and  _221
REMARK   94  A    between atoms: _221  and  _222
REMARK   95  A    between atoms: _222  and  _223
REMARK   96  A    between atoms: _223  and  _224
REMARK   97  A    between atoms: _224  and  _225
REMARK   98  A    between atoms: _229  and  _231
REMARK   99  A    between atoms: _231  and  _232
REMARK  100  A    between atoms: _231  and  _234
REMARK  101  A    between atoms: _234  and  _235
REMARK  102  A    between atoms: _241  and  _243
REMARK  103  A    between atoms: _243  and  _244
REMARK  104  A    between atoms: _243  and  _246
REMARK  105  A    between atoms: _246  and  _247
REMARK  106  A    between atoms: _250  and  _252
REMARK  107  A    between atoms: _252  and  _253
REMARK  108  A    between atoms: _252  and  _255
REMARK  109  A    between atoms: _255  and  _256
REMARK  110  A    between atoms: _258  and  _260
REMARK  111  A    between atoms: _260  and  _261
REMARK  112  A    between atoms: _260  and  _263
REMARK  113  A    between atoms: _263  and  _264
REMARK  114  A    between atoms: _264  and  _265
REMARK  115  A    between atoms: _265  and  _266
REMARK  116  A    between atoms: _265  and  _267
REMARK  117  A    between atoms: _266  and  CA_271
REMARK                            x       y       z     vdW  Elec       q    Type
REMARK                         _______ _______ _______ _____ _____    ______ ____
ROOT
ATOM      1  O   HOH     1      15.374  17.636  51.655  0.00  0.00    +0.000 OA
ENDROOT
TORSDOF 0
REMARK  Name = ../refined-set-2016/4avs/4avs_pocket.pdb
REMARK  117 active torsions:
REMARK  status: ('A' for Active; 'I' for Inactive)
REMARK    1  A    between atoms: _1  and  _3
REMARK    2  A    between atoms: _3  and  _4
REMARK    3  A    between atoms: _7  and  _9
REMARK    4  A    between atoms: _9  and  _10
REMARK    5  A    between atoms: _9  and  _12
REMARK    6  A    between atoms: _12  and  _13
REMARK    7  A    between atoms: _18  and  _19
REMARK    8  A    between atoms: _21  and  _23
REMARK    9  A    between atoms: _23  and  _24
REMARK   10  A    between atoms: _23  and  _26
REMARK   11  A    between atoms: _26  and  _27
REMARK   12  A    between atoms: _29  and  _31
REMARK   13  A    between atoms: _31  and  _32
REMARK   14  A    between atoms: _31  and  _34
REMARK   15  A    between atoms: _34  and  _35
REMARK   16  A    between atoms: _37  and  _39
REMARK   17  A    between atoms: _39  and  _40
REMARK   18  A    between atoms: _39  and  _42
REMARK   19  A    between atoms: _42  and  _43
REMARK   20  A    between atoms: _48  and  _50
REMARK   21  A    between atoms: _50  and  _51
REMARK   22  A    between atoms: _50  and  _53
REMARK   23  A    between atoms: _53  and  _54
REMARK   24  A    between atoms: _57  and  _59
REMARK   25  A    between atoms: _59  and  _60
REMARK   26  A    between atoms: _59  and  _62
REMARK   27  A    between atoms: _62  and  _63
REMARK   28  A    between atoms: _68  and  _70
REMARK   29  A    between atoms: _70  and  _71
REMARK   30  A    between atoms: _70  and  _73
REMARK   31  A    between atoms: _73  and  _74
REMARK   32  A    between atoms: _77  and  _79
REMARK   33  A    between atoms: _79  and  _80
REMARK   34  A    between atoms: _79  and  _82
REMARK   35  A    between atoms: _85  and  _87
REMARK   36  A    between atoms: _87  and  _88
REMARK   37  A    between atoms: _87  and  _90
REMARK   38  A    between atoms: _90  and  _91
REMARK   39  A    between atoms: _96  and  _97
REMARK   40  A    between atoms: _99  and  _101
REMARK   41  A    between atoms: _101  and  _102
REMARK   42  A    between atoms: _101  and  _104
REMARK   43  A    between atoms: _104  and  _105
REMARK   44  A    between atoms: _105  and  _106
REMARK   45  A    between atoms: _106  and  _107
REMARK   46  A    between atoms: _107  and  _108
REMARK   47  A    between atoms: _112  and  _114
REMARK   48  A    between atoms: _114  and  _115
REMARK   49  A    between atoms: _114  and  _117
REMARK   50  A    between atoms: _117  and  _118
REMARK   51  A    between atoms: _118  and  _119
REMARK   52  A    between atoms: _122  and  _124
REMARK   53  A    between atoms: _124  and  _125
REMARK   54  A    between atoms: _124  and  _127
REMARK   55  A    between atoms: _127  and  _128
REMARK   56  A    between atoms: _130  and  _132
REMARK   57  A    between atoms: _132  and  _133
REMARK   58  A    between atoms: _132  and  _135
REMARK   59  A    between atoms: _135  and  _136
REMARK   60  A    between atoms: _141  and  _142
REMARK   61  A    between atoms: _144  and  _146
REMARK   62  A    between atoms: _146  and  _147
REMARK   63  A    between atoms: _146  and  _149
REMARK   64  A    between atoms: _149  and  _150
REMARK   65  A    between atoms: _150  and  _151
REMARK   66  A    between atoms: _151  and  _152
REMARK   67  A    between atoms: _161  and  _163
REMARK   68  A    between atoms: _163  and  _164
REMARK   69  A    between atoms: _163  and  _166
REMARK   70  A    between atoms: _166  and  _167
REMARK   71  A    between atoms: _172  and  _174
REMARK   72  A    between atoms: _174  and  _175
REMARK   73  A    between atoms: _174  and  _177
REMARK   74  A    between atoms: _177  and  _178
REMARK   75  A    between atoms: _178  and  _179
REMARK   76  A    between atoms: _179  and  _180
REMARK   77  A    between atoms: _180  and  _181
REMARK   78  A    between atoms: _185  and  _187
REMARK   79  A    between atoms: _187  and  _188
REMARK   80  A    between atoms: _187  and  _190
REMARK   81  A    between atoms: _190  and  _191
REMARK   82  A    between atoms: _191  and  _192
REMARK   83  A    between atoms: _192  and  _193
REMARK   84  A    between atoms: _193  and  CA_271
REMARK   85  A    between atoms: _195  and  _197
REMARK   86  A    between atoms: _197  and  _198
REMARK   87  A    between atoms: _197  and  _200
REMARK   88  A    between atoms: _200  and  _201
REMARK   89  A    between atoms: _201  and  _202
REMARK   90  A    between atoms: _209  and  _210
REMARK   91  A    between atoms: _216  and  _218
REMARK   92  A    between atoms: _218  and  _219
REMARK   93  A    between atoms: _218  and  _221
REMARK   94  A    between atoms: _221  and  _222
REMARK   95  A    between atoms: _222  and  _223
REMARK   96  A    between atoms: _223  and  _224
REMARK   97  A    between atoms: _224  and  _225
REMARK   98  A    between atoms: _229  and  _231
REMARK   99  A    between atoms: _231  and  _232
REMARK  100  A    between atoms: _231  and  _234
REMARK  101  A    between atoms: _234  and  _235
REMARK  102  A    between atoms: _241  and  _243
REMARK  103  A    between atoms: _243  and  _244
REMARK  104  A    between atoms: _243  and  _246
REMARK  105  A    between atoms: _246  and  _247
REMARK  106  A    between atoms: _250  and  _252
REMARK  107  A    between atoms: _252  and  _253
REMARK  108  A    between atoms: _252  and  _255
REMARK  109  A    between atoms: _255  and  _256
REMARK  110  A    between atoms: _258  and  _260
REMARK  111  A    between atoms: _260  and  _261
REMARK  112  A    between atoms: _260  and  _263
REMARK  113  A    between atoms: _263  and  _264
REMARK  114  A    between atoms: _264  and  _265
REMARK  115  A    between atoms: _265  and  _266
REMARK  116  A    between atoms: _265  and  _267
REMARK  117  A    between atoms: _266  and  CA_271
REMARK                            x       y       z     vdW  Elec       q    Type
REMARK                         _______ _______ _______ _____ _____    ______ ____
ROOT
ATOM      1  O   HOH     1      21.177  11.268  51.719  0.00  0.00    +0.000 OA
ENDROOT
TORSDOF 0
REMARK  Name = ../refined-set-2016/4avs/4avs_pocket.pdb
REMARK  117 active torsions:
REMARK  status: ('A' for Active; 'I' for Inactive)
REMARK    1  A    between atoms: _1  and  _3
REMARK    2  A    between atoms: _3  and  _4
REMARK    3  A    between atoms: _7  and  _9
REMARK    4  A    between atoms: _9  and  _10
REMARK    5  A    between atoms: _9  and  _12
REMARK    6  A    between atoms: _12  and  _13
REMARK    7  A    between atoms: _18  and  _19
REMARK    8  A    between atoms: _21  and  _23
REMARK    9  A    between atoms: _23  and  _24
REMARK   10  A    between atoms: _23  and  _26
REMARK   11  A    between atoms: _26  and  _27
REMARK   12  A    between atoms: _29  and  _31
REMARK   13  A    between atoms: _31  and  _32
REMARK   14  A    between atoms: _31  and  _34
REMARK   15  A    between atoms: _34  and  _35
REMARK   16  A    between atoms: _37  and  _39
REMARK   17  A    between atoms: _39  and  _40
REMARK   18  A    between atoms: _39  and  _42
REMARK   19  A    between atoms: _42  and  _43
REMARK   20  A    between atoms: _48  and  _50
REMARK   21  A    between atoms: _50  and  _51
REMARK   22  A    between atoms: _50  and  _53
REMARK   23  A    between atoms: _53  and  _54
REMARK   24  A    between atoms: _57  and  _59
REMARK   25  A    between atoms: _59  and  _60
REMARK   26  A    between atoms: _59  and  _62
REMARK   27  A    between atoms: _62  and  _63
REMARK   28  A    between atoms: _68  and  _70
REMARK   29  A    between atoms: _70  and  _71
REMARK   30  A    between atoms: _70  and  _73
REMARK   31  A    between atoms: _73  and  _74
REMARK   32  A    between atoms: _77  and  _79
REMARK   33  A    between atoms: _79  and  _80
REMARK   34  A    between atoms: _79  and  _82
REMARK   35  A    between atoms: _85  and  _87
REMARK   36  A    between atoms: _87  and  _88
REMARK   37  A    between atoms: _87  and  _90
REMARK   38  A    between atoms: _90  and  _91
REMARK   39  A    between atoms: _96  and  _97
REMARK   40  A    between atoms: _99  and  _101
REMARK   41  A    between atoms: _101  and  _102
REMARK   42  A    between atoms: _101  and  _104
REMARK   43  A    between atoms: _104  and  _105
REMARK   44  A    between atoms: _105  and  _106
REMARK   45  A    between atoms: _106  and  _107
REMARK   46  A    between atoms: _107  and  _108
REMARK   47  A    between atoms: _112  and  _114
REMARK   48  A    between atoms: _114  and  _115
REMARK   49  A    between atoms: _114  and  _117
REMARK   50  A    between atoms: _117  and  _118
REMARK   51  A    between atoms: _118  and  _119
REMARK   52  A    between atoms: _122  and  _124
REMARK   53  A    between atoms: _124  and  _125
REMARK   54  A    between atoms: _124  and  _127
REMARK   55  A    between atoms: _127  and  _128
REMARK   56  A    between atoms: _130  and  _132
REMARK   57  A    between atoms: _132  and  _133
REMARK   58  A    between atoms: _132  and  _135
REMARK   59  A    between atoms: _135  and  _136
REMARK   60  A    between atoms: _141  and  _142
REMARK   61  A    between atoms: _144  and  _146
REMARK   62  A    between atoms: _146  and  _147
REMARK   63  A    between atoms: _146  and  _149
REMARK   64  A    between atoms: _149  and  _150
REMARK   65  A    between atoms: _150  and  _151
REMARK   66  A    between atoms: _151  and  _152
REMARK   67  A    between atoms: _161  and  _163
REMARK   68  A    between atoms: _163  and  _164
REMARK   69  A    between atoms: _163  and  _166
REMARK   70  A    between atoms: _166  and  _167
REMARK   71  A    between atoms: _172  and  _174
REMARK   72  A    between atoms: _174  and  _175
REMARK   73  A    between atoms: _174  and  _177
REMARK   74  A    between atoms: _177  and  _178
REMARK   75  A    between atoms: _178  and  _179
REMARK   76  A    between atoms: _179  and  _180
REMARK   77  A    between atoms: _180  and  _181
REMARK   78  A    between atoms: _185  and  _187
REMARK   79  A    between atoms: _187  and  _188
REMARK   80  A    between atoms: _187  and  _190
REMARK   81  A    between atoms: _190  and  _191
REMARK   82  A    between atoms: _191  and  _192
REMARK   83  A    between atoms: _192  and  _193
REMARK   84  A    between atoms: _193  and  CA_271
REMARK   85  A    between atoms: _195  and  _197
REMARK   86  A    between atoms: _197  and  _198
REMARK   87  A    between atoms: _197  and  _200
REMARK   88  A    between atoms: _200  and  _201
REMARK   89  A    between atoms: _201  and  _202
REMARK   90  A    between atoms: _209  and  _210
REMARK   91  A    between atoms: _216  and  _218
REMARK   92  A    between atoms: _218  and  _219
REMARK   93  A    between atoms: _218  and  _221
REMARK   94  A    between atoms: _221  and  _222
REMARK   95  A    between atoms: _222  and  _223
REMARK   96  A    between atoms: _223  and  _224
REMARK   97  A    between atoms: _224  and  _225
REMARK   98  A    between atoms: _229  and  _231
REMARK   99  A    between atoms: _231  and  _232
REMARK  100  A    between atoms: _231  and  _234
REMARK  101  A    between atoms: _234  and  _235
REMARK  102  A    between atoms: _241  and  _243
REMARK  103  A    between atoms: _243  and  _244
REMARK  104  A    between atoms: _243  and  _246
REMARK  105  A    between atoms: _246  and  _247
REMARK  106  A    between atoms: _250  and  _252
REMARK  107  A    between atoms: _252  and  _253
REMARK  108  A    between atoms: _252  and  _255
REMARK  109  A    between atoms: _255  and  _256
REMARK  110  A    between atoms: _258  and  _260
REMARK  111  A    between atoms: _260  and  _261
REMARK  112  A    between atoms: _260  and  _263
REMARK  113  A    between atoms: _263  and  _264
REMARK  114  A    between atoms: _264  and  _265
REMARK  115  A    between atoms: _265  and  _266
REMARK  116  A    between atoms: _265  and  _267
REMARK  117  A    between atoms: _266  and  CA_271
REMARK                            x       y       z     vdW  Elec       q    Type
REMARK                         _______ _______ _______ _____ _____    ______ ____
ROOT
ATOM      1  O   HOH     1      23.062  15.151  55.188  0.00  0.00    +0.000 OA
ENDROOT
TORSDOF 0
REMARK  Name = ../refined-set-2016/4avs/4avs_pocket.pdb
REMARK  117 active torsions:
REMARK  status: ('A' for Active; 'I' for Inactive)
REMARK    1  A    between atoms: _1  and  _3
REMARK    2  A    between atoms: _3  and  _4
REMARK    3  A    between atoms: _7  and  _9
REMARK    4  A    between atoms: _9  and  _10
REMARK    5  A    between atoms: _9  and  _12
REMARK    6  A    between atoms: _12  and  _13
REMARK    7  A    between atoms: _18  and  _19
REMARK    8  A    between atoms: _21  and  _23
REMARK    9  A    between atoms: _23  and  _24
REMARK   10  A    between atoms: _23  and  _26
REMARK   11  A    between atoms: _26  and  _27
REMARK   12  A    between atoms: _29  and  _31
REMARK   13  A    between atoms: _31  and  _32
REMARK   14  A    between atoms: _31  and  _34
REMARK   15  A    between atoms: _34  and  _35
REMARK   16  A    between atoms: _37  and  _39
REMARK   17  A    between atoms: _39  and  _40
REMARK   18  A    between atoms: _39  and  _42
REMARK   19  A    between atoms: _42  and  _43
REMARK   20  A    between atoms: _48  and  _50
REMARK   21  A    between atoms: _50  and  _51
REMARK   22  A    between atoms: _50  and  _53
REMARK   23  A    between atoms: _53  and  _54
REMARK   24  A    between atoms: _57  and  _59
REMARK   25  A    between atoms: _59  and  _60
REMARK   26  A    between atoms: _59  and  _62
REMARK   27  A    between atoms: _62  and  _63
REMARK   28  A    between atoms: _68  and  _70
REMARK   29  A    between atoms: _70  and  _71
REMARK   30  A    between atoms: _70  and  _73
REMARK   31  A    between atoms: _73  and  _74
REMARK   32  A    between atoms: _77  and  _79
REMARK   33  A    between atoms: _79  and  _80
REMARK   34  A    between atoms: _79  and  _82
REMARK   35  A    between atoms: _85  and  _87
REMARK   36  A    between atoms: _87  and  _88
REMARK   37  A    between atoms: _87  and  _90
REMARK   38  A    between atoms: _90  and  _91
REMARK   39  A    between atoms: _96  and  _97
REMARK   40  A    between atoms: _99  and  _101
REMARK   41  A    between atoms: _101  and  _102
REMARK   42  A    between atoms: _101  and  _104
REMARK   43  A    between atoms: _104  and  _105
REMARK   44  A    between atoms: _105  and  _106
REMARK   45  A    between atoms: _106  and  _107
REMARK   46  A    between atoms: _107  and  _108
REMARK   47  A    between atoms: _112  and  _114
REMARK   48  A    between atoms: _114  and  _115
REMARK   49  A    between atoms: _114  and  _117
REMARK   50  A    between atoms: _117  and  _118
REMARK   51  A    between atoms: _118  and  _119
REMARK   52  A    between atoms: _122  and  _124
REMARK   53  A    between atoms: _124  and  _125
REMARK   54  A    between atoms: _124  and  _127
REMARK   55  A    between atoms: _127  and  _128
REMARK   56  A    between atoms: _130  and  _132
REMARK   57  A    between atoms: _132  and  _133
REMARK   58  A    between atoms: _132  and  _135
REMARK   59  A    between atoms: _135  and  _136
REMARK   60  A    between atoms: _141  and  _142
REMARK   61  A    between atoms: _144  and  _146
REMARK   62  A    between atoms: _146  and  _147
REMARK   63  A    between atoms: _146  and  _149
REMARK   64  A    between atoms: _149  and  _150
REMARK   65  A    between atoms: _150  and  _151
REMARK   66  A    between atoms: _151  and  _152
REMARK   67  A    between atoms: _161  and  _163
REMARK   68  A    between atoms: _163  and  _164
REMARK   69  A    between atoms: _163  and  _166
REMARK   70  A    between atoms: _166  and  _167
REMARK   71  A    between atoms: _172  and  _174
REMARK   72  A    between atoms: _174  and  _175
REMARK   73  A    between atoms: _174  and  _177
REMARK   74  A    between atoms: _177  and  _178
REMARK   75  A    between atoms: _178  and  _179
REMARK   76  A    between atoms: _179  and  _180
REMARK   77  A    between atoms: _180  and  _181
REMARK   78  A    between atoms: _185  and  _187
REMARK   79  A    between atoms: _187  and  _188
REMARK   80  A    between atoms: _187  and  _190
REMARK   81  A    between atoms: _190  and  _191
REMARK   82  A    between atoms: _191  and  _192
REMARK   83  A    between atoms: _192  and  _193
REMARK   84  A    between atoms: _193  and  CA_271
REMARK   85  A    between atoms: _195  and  _197
REMARK   86  A    between atoms: _197  and  _198
REMARK   87  A    between atoms: _197  and  _200
REMARK   88  A    between atoms: _200  and  _201
REMARK   89  A    between atoms: _201  and  _202
REMARK   90  A    between atoms: _209  and  _210
REMARK   91  A    between atoms: _216  and  _218
REMARK   92  A    between atoms: _218  and  _219
REMARK   93  A    between atoms: _218  and  _221
REMARK   94  A    between atoms: _221  and  _222
REMARK   95  A    between atoms: _222  and  _223
REMARK   96  A    between atoms: _223  and  _224
REMARK   97  A    between atoms: _224  and  _225
REMARK   98  A    between atoms: _229  and  _231
REMARK   99  A    between atoms: _231  and  _232
REMARK  100  A    between atoms: _231  and  _234
REMARK  101  A    between atoms: _234  and  _235
REMARK  102  A    between atoms: _241  and  _243
REMARK  103  A    between atoms: _243  and  _244
REMARK  104  A    between atoms: _243  and  _246
REMARK  105  A    between atoms: _246  and  _247
REMARK  106  A    between atoms: _250  and  _252
REMARK  107  A    between atoms: _252  and  _253
REMARK  108  A    between atoms: _252  and  _255
REMARK  109  A    between atoms: _255  and  _256
REMARK  110  A    between atoms: _258  and  _260
REMARK  111  A    between atoms: _260  and  _261
REMARK  112  A    between atoms: _260  and  _263
REMARK  113  A    between atoms: _263  and  _264
REMARK  114  A    between atoms: _264  and  _265
REMARK  115  A    between atoms: _265  and  _266
REMARK  116  A    between atoms: _265  and  _267
REMARK  117  A    between atoms: _266  and  CA_271
REMARK                            x       y       z     vdW  Elec       q    Type
REMARK                         _______ _______ _______ _____ _____    ______ ____
ROOT
ATOM      1  O   HOH     1       8.231  13.998  55.677  0.00  0.00    +0.000 OA
ENDROOT
TORSDOF 0
REMARK  Name = ../refined-set-2016/4avs/4avs_pocket.pdb
REMARK  117 active torsions:
REMARK  status: ('A' for Active; 'I' for Inactive)
REMARK    1  A    between atoms: _1  and  _3
REMARK    2  A    between atoms: _3  and  _4
REMARK    3  A    between atoms: _7  and  _9
REMARK    4  A    between atoms: _9  and  _10
REMARK    5  A    between atoms: _9  and  _12
REMARK    6  A    between atoms: _12  and  _13
REMARK    7  A    between atoms: _18  and  _19
REMARK    8  A    between atoms: _21  and  _23
REMARK    9  A    between atoms: _23  and  _24
REMARK   10  A    between atoms: _23  and  _26
REMARK   11  A    between atoms: _26  and  _27
REMARK   12  A    between atoms: _29  and  _31
REMARK   13  A    between atoms: _31  and  _32
REMARK   14  A    between atoms: _31  and  _34
REMARK   15  A    between atoms: _34  and  _35
REMARK   16  A    between atoms: _37  and  _39
REMARK   17  A    between atoms: _39  and  _40
REMARK   18  A    between atoms: _39  and  _42
REMARK   19  A    between atoms: _42  and  _43
REMARK   20  A    between atoms: _48  and  _50
REMARK   21  A    between atoms: _50  and  _51
REMARK   22  A    between atoms: _50  and  _53
REMARK   23  A    between atoms: _53  and  _54
REMARK   24  A    between atoms: _57  and  _59
REMARK   25  A    between atoms: _59  and  _60
REMARK   26  A    between atoms: _59  and  _62
REMARK   27  A    between atoms: _62  and  _63
REMARK   28  A    between atoms: _68  and  _70
REMARK   29  A    between atoms: _70  and  _71
REMARK   30  A    between atoms: _70  and  _73
REMARK   31  A    between atoms: _73  and  _74
REMARK   32  A    between atoms: _77  and  _79
REMARK   33  A    between atoms: _79  and  _80
REMARK   34  A    between atoms: _79  and  _82
REMARK   35  A    between atoms: _85  and  _87
REMARK   36  A    between atoms: _87  and  _88
REMARK   37  A    between atoms: _87  and  _90
REMARK   38  A    between atoms: _90  and  _91
REMARK   39  A    between atoms: _96  and  _97
REMARK   40  A    between atoms: _99  and  _101
REMARK   41  A    between atoms: _101  and  _102
REMARK   42  A    between atoms: _101  and  _104
REMARK   43  A    between atoms: _104  and  _105
REMARK   44  A    between atoms: _105  and  _106
REMARK   45  A    between atoms: _106  and  _107
REMARK   46  A    between atoms: _107  and  _108
REMARK   47  A    between atoms: _112  and  _114
REMARK   48  A    between atoms: _114  and  _115
REMARK   49  A    between atoms: _114  and  _117
REMARK   50  A    between atoms: _117  and  _118
REMARK   51  A    between atoms: _118  and  _119
REMARK   52  A    between atoms: _122  and  _124
REMARK   53  A    between atoms: _124  and  _125
REMARK   54  A    between atoms: _124  and  _127
REMARK   55  A    between atoms: _127  and  _128
REMARK   56  A    between atoms: _130  and  _132
REMARK   57  A    between atoms: _132  and  _133
REMARK   58  A    between atoms: _132  and  _135
REMARK   59  A    between atoms: _135  and  _136
REMARK   60  A    between atoms: _141  and  _142
REMARK   61  A    between atoms: _144  and  _146
REMARK   62  A    between atoms: _146  and  _147
REMARK   63  A    between atoms: _146  and  _149
REMARK   64  A    between atoms: _149  and  _150
REMARK   65  A    between atoms: _150  and  _151
REMARK   66  A    between atoms: _151  and  _152
REMARK   67  A    between atoms: _161  and  _163
REMARK   68  A    between atoms: _163  and  _164
REMARK   69  A    between atoms: _163  and  _166
REMARK   70  A    between atoms: _166  and  _167
REMARK   71  A    between atoms: _172  and  _174
REMARK   72  A    between atoms: _174  and  _175
REMARK   73  A    between atoms: _174  and  _177
REMARK   74  A    between atoms: _177  and  _178
REMARK   75  A    between atoms: _178  and  _179
REMARK   76  A    between atoms: _179  and  _180
REMARK   77  A    between atoms: _180  and  _181
REMARK   78  A    between atoms: _185  and  _187
REMARK   79  A    between atoms: _187  and  _188
REMARK   80  A    between atoms: _187  and  _190
REMARK   81  A    between atoms: _190  and  _191
REMARK   82  A    between atoms: _191  and  _192
REMARK   83  A    between atoms: _192  and  _193
REMARK   84  A    between atoms: _193  and  CA_271
REMARK   85  A    between atoms: _195  and  _197
REMARK   86  A    between atoms: _197  and  _198
REMARK   87  A    between atoms: _197  and  _200
REMARK   88  A    between atoms: _200  and  _201
REMARK   89  A    between atoms: _201  and  _202
REMARK   90  A    between atoms: _209  and  _210
REMARK   91  A    between atoms: _216  and  _218
REMARK   92  A    between atoms: _218  and  _219
REMARK   93  A    between atoms: _218  and  _221
REMARK   94  A    between atoms: _221  and  _222
REMARK   95  A    between atoms: _222  and  _223
REMARK   96  A    between atoms: _223  and  _224
REMARK   97  A    between atoms: _224  and  _225
REMARK   98  A    between atoms: _229  and  _231
REMARK   99  A    between atoms: _231  and  _232
REMARK  100  A    between atoms: _231  and  _234
REMARK  101  A    between atoms: _234  and  _235
REMARK  102  A    between atoms: _241  and  _243
REMARK  103  A    between atoms: _243  and  _244
REMARK  104  A    between atoms: _243  and  _246
REMARK  105  A    between atoms: _246  and  _247
REMARK  106  A    between atoms: _250  and  _252
REMARK  107  A    between atoms: _252  and  _253
REMARK  108  A    between atoms: _252  and  _255
REMARK  109  A    between atoms: _255  and  _256
REMARK  110  A    between atoms: _258  and  _260
REMARK  111  A    between atoms: _260  and  _261
REMARK  112  A    between atoms: _260  and  _263
REMARK  113  A    between atoms: _263  and  _264
REMARK  114  A    between atoms: _264  and  _265
REMARK  115  A    between atoms: _265  and  _266
REMARK  116  A    between atoms: _265  and  _267
REMARK  117  A    between atoms: _266  and  CA_271
REMARK                            x       y       z     vdW  Elec       q    Type
REMARK                         _______ _______ _______ _____ _____    ______ ____
ROOT
ATOM      1  O   HOH     1      10.845  16.471  58.219  0.00  0.00    +0.000 OA
ENDROOT
TORSDOF 0
REMARK  Name = ../refined-set-2016/4avs/4avs_pocket.pdb
REMARK  117 active torsions:
REMARK  status: ('A' for Active; 'I' for Inactive)
REMARK    1  A    between atoms: _1  and  _3
REMARK    2  A    between atoms: _3  and  _4
REMARK    3  A    between atoms: _7  and  _9
REMARK    4  A    between atoms: _9  and  _10
REMARK    5  A    between atoms: _9  and  _12
REMARK    6  A    between atoms: _12  and  _13
REMARK    7  A    between atoms: _18  and  _19
REMARK    8  A    between atoms: _21  and  _23
REMARK    9  A    between atoms: _23  and  _24
REMARK   10  A    between atoms: _23  and  _26
REMARK   11  A    between atoms: _26  and  _27
REMARK   12  A    between atoms: _29  and  _31
REMARK   13  A    between atoms: _31  and  _32
REMARK   14  A    between atoms: _31  and  _34
REMARK   15  A    between atoms: _34  and  _35
REMARK   16  A    between atoms: _37  and  _39
REMARK   17  A    between atoms: _39  and  _40
REMARK   18  A    between atoms: _39  and  _42
REMARK   19  A    between atoms: _42  and  _43
REMARK   20  A    between atoms: _48  and  _50
REMARK   21  A    between atoms: _50  and  _51
REMARK   22  A    between atoms: _50  and  _53
REMARK   23  A    between atoms: _53  and  _54
REMARK   24  A    between atoms: _57  and  _59
REMARK   25  A    between atoms: _59  and  _60
REMARK   26  A    between atoms: _59  and  _62
REMARK   27  A    between atoms: _62  and  _63
REMARK   28  A    between atoms: _68  and  _70
REMARK   29  A    between atoms: _70  and  _71
REMARK   30  A    between atoms: _70  and  _73
REMARK   31  A    between atoms: _73  and  _74
REMARK   32  A    between atoms: _77  and  _79
REMARK   33  A    between atoms: _79  and  _80
REMARK   34  A    between atoms: _79  and  _82
REMARK   35  A    between atoms: _85  and  _87
REMARK   36  A    between atoms: _87  and  _88
REMARK   37  A    between atoms: _87  and  _90
REMARK   38  A    between atoms: _90  and  _91
REMARK   39  A    between atoms: _96  and  _97
REMARK   40  A    between atoms: _99  and  _101
REMARK   41  A    between atoms: _101  and  _102
REMARK   42  A    between atoms: _101  and  _104
REMARK   43  A    between atoms: _104  and  _105
REMARK   44  A    between atoms: _105  and  _106
REMARK   45  A    between atoms: _106  and  _107
REMARK   46  A    between atoms: _107  and  _108
REMARK   47  A    between atoms: _112  and  _114
REMARK   48  A    between atoms: _114  and  _115
REMARK   49  A    between atoms: _114  and  _117
REMARK   50  A    between atoms: _117  and  _118
REMARK   51  A    between atoms: _118  and  _119
REMARK   52  A    between atoms: _122  and  _124
REMARK   53  A    between atoms: _124  and  _125
REMARK   54  A    between atoms: _124  and  _127
REMARK   55  A    between atoms: _127  and  _128
REMARK   56  A    between atoms: _130  and  _132
REMARK   57  A    between atoms: _132  and  _133
REMARK   58  A    between atoms: _132  and  _135
REMARK   59  A    between atoms: _135  and  _136
REMARK   60  A    between atoms: _141  and  _142
REMARK   61  A    between atoms: _144  and  _146
REMARK   62  A    between atoms: _146  and  _147
REMARK   63  A    between atoms: _146  and  _149
REMARK   64  A    between atoms: _149  and  _150
REMARK   65  A    between atoms: _150  and  _151
REMARK   66  A    between atoms: _151  and  _152
REMARK   67  A    between atoms: _161  and  _163
REMARK   68  A    between atoms: _163  and  _164
REMARK   69  A    between atoms: _163  and  _166
REMARK   70  A    between atoms: _166  and  _167
REMARK   71  A    between atoms: _172  and  _174
REMARK   72  A    between atoms: _174  and  _175
REMARK   73  A    between atoms: _174  and  _177
REMARK   74  A    between atoms: _177  and  _178
REMARK   75  A    between atoms: _178  and  _179
REMARK   76  A    between atoms: _179  and  _180
REMARK   77  A    between atoms: _180  and  _181
REMARK   78  A    between atoms: _185  and  _187
REMARK   79  A    between atoms: _187  and  _188
REMARK   80  A    between atoms: _187  and  _190
REMARK   81  A    between atoms: _190  and  _191
REMARK   82  A    between atoms: _191  and  _192
REMARK   83  A    between atoms: _192  and  _193
REMARK   84  A    between atoms: _193  and  CA_271
REMARK   85  A    between atoms: _195  and  _197
REMARK   86  A    between atoms: _197  and  _198
REMARK   87  A    between atoms: _197  and  _200
REMARK   88  A    between atoms: _200  and  _201
REMARK   89  A    between atoms: _201  and  _202
REMARK   90  A    between atoms: _209  and  _210
REMARK   91  A    between atoms: _216  and  _218
REMARK   92  A    between atoms: _218  and  _219
REMARK   93  A    between atoms: _218  and  _221
REMARK   94  A    between atoms: _221  and  _222
REMARK   95  A    between atoms: _222  and  _223
REMARK   96  A    between atoms: _223  and  _224
REMARK   97  A    between atoms: _224  and  _225
REMARK   98  A    between atoms: _229  and  _231
REMARK   99  A    between atoms: _231  and  _232
REMARK  100  A    between atoms: _231  and  _234
REMARK  101  A    between atoms: _234  and  _235
REMARK  102  A    between atoms: _241  and  _243
REMARK  103  A    between atoms: _243  and  _244
REMARK  104  A    between atoms: _243  and  _246
REMARK  105  A    between atoms: _246  and  _247
REMARK  106  A    between atoms: _250  and  _252
REMARK  107  A    between atoms: _252  and  _253
REMARK  108  A    between atoms: _252  and  _255
REMARK  109  A    between atoms: _255  and  _256
REMARK  110  A    between atoms: _258  and  _260
REMARK  111  A    between atoms: _260  and  _261
REMARK  112  A    between atoms: _260  and  _263
REMARK  113  A    between atoms: _263  and  _264
REMARK  114  A    between atoms: _264  and  _265
REMARK  115  A    between atoms: _265  and  _266
REMARK  116  A    between atoms: _265  and  _267
REMARK  117  A    between atoms: _266  and  CA_271
REMARK                            x       y       z     vdW  Elec       q    Type
REMARK                         _______ _______ _______ _____ _____    ______ ____
ROOT
ATOM      1  O   HOH     1      12.954  18.819  56.323  0.00  0.00    +0.000 OA
ENDROOT
TORSDOF 0
REMARK  Name = ../refined-set-2016/4avs/4avs_pocket.pdb
REMARK  117 active torsions:
REMARK  status: ('A' for Active; 'I' for Inactive)
REMARK    1  A    between atoms: _1  and  _3
REMARK    2  A    between atoms: _3  and  _4
REMARK    3  A    between atoms: _7  and  _9
REMARK    4  A    between atoms: _9  and  _10
REMARK    5  A    between atoms: _9  and  _12
REMARK    6  A    between atoms: _12  and  _13
REMARK    7  A    between atoms: _18  and  _19
REMARK    8  A    between atoms: _21  and  _23
REMARK    9  A    between atoms: _23  and  _24
REMARK   10  A    between atoms: _23  and  _26
REMARK   11  A    between atoms: _26  and  _27
REMARK   12  A    between atoms: _29  and  _31
REMARK   13  A    between atoms: _31  and  _32
REMARK   14  A    between atoms: _31  and  _34
REMARK   15  A    between atoms: _34  and  _35
REMARK   16  A    between atoms: _37  and  _39
REMARK   17  A    between atoms: _39  and  _40
REMARK   18  A    between atoms: _39  and  _42
REMARK   19  A    between atoms: _42  and  _43
REMARK   20  A    between atoms: _48  and  _50
REMARK   21  A    between atoms: _50  and  _51
REMARK   22  A    between atoms: _50  and  _53
REMARK   23  A    between atoms: _53  and  _54
REMARK   24  A    between atoms: _57  and  _59
REMARK   25  A    between atoms: _59  and  _60
REMARK   26  A    between atoms: _59  and  _62
REMARK   27  A    between atoms: _62  and  _63
REMARK   28  A    between atoms: _68  and  _70
REMARK   29  A    between atoms: _70  and  _71
REMARK   30  A    between atoms: _70  and  _73
REMARK   31  A    between atoms: _73  and  _74
REMARK   32  A    between atoms: _77  and  _79
REMARK   33  A    between atoms: _79  and  _80
REMARK   34  A    between atoms: _79  and  _82
REMARK   35  A    between atoms: _85  and  _87
REMARK   36  A    between atoms: _87  and  _88
REMARK   37  A    between atoms: _87  and  _90
REMARK   38  A    between atoms: _90  and  _91
REMARK   39  A    between atoms: _96  and  _97
REMARK   40  A    between atoms: _99  and  _101
REMARK   41  A    between atoms: _101  and  _102
REMARK   42  A    between atoms: _101  and  _104
REMARK   43  A    between atoms: _104  and  _105
REMARK   44  A    between atoms: _105  and  _106
REMARK   45  A    between atoms: _106  and  _107
REMARK   46  A    between atoms: _107  and  _108
REMARK   47  A    between atoms: _112  and  _114
REMARK   48  A    between atoms: _114  and  _115
REMARK   49  A    between atoms: _114  and  _117
REMARK   50  A    between atoms: _117  and  _118
REMARK   51  A    between atoms: _118  and  _119
REMARK   52  A    between atoms: _122  and  _124
REMARK   53  A    between atoms: _124  and  _125
REMARK   54  A    between atoms: _124  and  _127
REMARK   55  A    between atoms: _127  and  _128
REMARK   56  A    between atoms: _130  and  _132
REMARK   57  A    between atoms: _132  and  _133
REMARK   58  A    between atoms: _132  and  _135
REMARK   59  A    between atoms: _135  and  _136
REMARK   60  A    between atoms: _141  and  _142
REMARK   61  A    between atoms: _144  and  _146
REMARK   62  A    between atoms: _146  and  _147
REMARK   63  A    between atoms: _146  and  _149
REMARK   64  A    between atoms: _149  and  _150
REMARK   65  A    between atoms: _150  and  _151
REMARK   66  A    between atoms: _151  and  _152
REMARK   67  A    between atoms: _161  and  _163
REMARK   68  A    between atoms: _163  and  _164
REMARK   69  A    between atoms: _163  and  _166
REMARK   70  A    between atoms: _166  and  _167
REMARK   71  A    between atoms: _172  and  _174
REMARK   72  A    between atoms: _174  and  _175
REMARK   73  A    between atoms: _174  and  _177
REMARK   74  A    between atoms: _177  and  _178
REMARK   75  A    between atoms: _178  and  _179
REMARK   76  A    between atoms: _179  and  _180
REMARK   77  A    between atoms: _180  and  _181
REMARK   78  A    between atoms: _185  and  _187
REMARK   79  A    between atoms: _187  and  _188
REMARK   80  A    between atoms: _187  and  _190
REMARK   81  A    between atoms: _190  and  _191
REMARK   82  A    between atoms: _191  and  _192
REMARK   83  A    between atoms: _192  and  _193
REMARK   84  A    between atoms: _193  and  CA_271
REMARK   85  A    between atoms: _195  and  _197
REMARK   86  A    between atoms: _197  and  _198
REMARK   87  A    between atoms: _197  and  _200
REMARK   88  A    between atoms: _200  and  _201
REMARK   89  A    between atoms: _201  and  _202
REMARK   90  A    between atoms: _209  and  _210
REMARK   91  A    between atoms: _216  and  _218
REMARK   92  A    between atoms: _218  and  _219
REMARK   93  A    between atoms: _218  and  _221
REMARK   94  A    between atoms: _221  and  _222
REMARK   95  A    between atoms: _222  and  _223
REMARK   96  A    between atoms: _223  and  _224
REMARK   97  A    between atoms: _224  and  _225
REMARK   98  A    between atoms: _229  and  _231
REMARK   99  A    between atoms: _231  and  _232
REMARK  100  A    between atoms: _231  and  _234
REMARK  101  A    between atoms: _234  and  _235
REMARK  102  A    between atoms: _241  and  _243
REMARK  103  A    between atoms: _243  and  _244
REMARK  104  A    between atoms: _243  and  _246
REMARK  105  A    between atoms: _246  and  _247
REMARK  106  A    between atoms: _250  and  _252
REMARK  107  A    between atoms: _252  and  _253
REMARK  108  A    between atoms: _252  and  _255
REMARK  109  A    between atoms: _255  and  _256
REMARK  110  A    between atoms: _258  and  _260
REMARK  111  A    between atoms: _260  and  _261
REMARK  112  A    between atoms: _260  and  _263
REMARK  113  A    between atoms: _263  and  _264
REMARK  114  A    between atoms: _264  and  _265
REMARK  115  A    between atoms: _265  and  _266
REMARK  116  A    between atoms: _265  and  _267
REMARK  117  A    between atoms: _266  and  CA_271
REMARK                            x       y       z     vdW  Elec       q    Type
REMARK                         _______ _______ _______ _____ _____    ______ ____
ROOT
ATOM      1  O   HOH     1      11.073  20.653  59.624  0.00  0.00    +0.000 OA
ENDROOT
TORSDOF 0
