REMARK  Name = ../refined-set-2016/4ejl/4ejl_pocket.pdb
REMARK  69 active torsions:
REMARK  status: ('A' for Active; 'I' for Inactive)
REMARK    1  A    between atoms: _1  and  _3
REMARK    2  A    between atoms: _3  and  _4
REMARK    3  A    between atoms: _3  and  _6
REMARK    4  A    between atoms: _6  and  _7
REMARK    5  A    between atoms: _7  and  _8
REMARK    6  A    between atoms: _11  and  _13
REMARK    7  A    between atoms: _13  and  _14
REMARK    8  A    between atoms: _13  and  _16
REMARK    9  A    between atoms: _16  and  _17
REMARK   10  A    between atoms: _27  and  _29
REMARK   11  A    between atoms: _29  and  _30
REMARK   12  A    between atoms: _29  and  _32
REMARK   13  A    between atoms: _32  and  _33
REMARK   14  A    between atoms: _33  and  _34
REMARK   15  A    between atoms: _34  and  _35
REMARK   16  A    between atoms: _35  and  _36
REMARK   17  A    between atoms: _41  and  _42
REMARK   18  A    between atoms: _47  and  _49
REMARK   19  A    between atoms: _49  and  _50
REMARK   20  A    between atoms: _49  and  _52
REMARK   21  A    between atoms: _52  and  _53
REMARK   22  A    between atoms: _53  and  _54
REMARK   23  A    between atoms: _54  and  _55
REMARK   24  A    between atoms: _55  and  _56
REMARK   25  A    between atoms: _60  and  _62
REMARK   26  A    between atoms: _62  and  _63
REMARK   27  A    between atoms: _62  and  _65
REMARK   28  A    between atoms: _65  and  _66
REMARK   29  A    between atoms: _66  and  _67
REMARK   30  A    between atoms: _69  and  _71
REMARK   31  A    between atoms: _71  and  _72
REMARK   32  A    between atoms: _71  and  _74
REMARK   33  A    between atoms: _74  and  _75
REMARK   34  A    between atoms: _78  and  _80
REMARK   35  A    between atoms: _80  and  _81
REMARK   36  A    between atoms: _80  and  _83
REMARK   37  A    between atoms: _83  and  _84
REMARK   38  A    between atoms: _87  and  _89
REMARK   39  A    between atoms: _89  and  _90
REMARK   40  A    between atoms: _89  and  _92
REMARK   41  A    between atoms: _92  and  _93
REMARK   42  A    between atoms: _93  and  _94
REMARK   43  A    between atoms: _94  and  _95
REMARK   44  A    between atoms: _95  and  _96
REMARK   45  A    between atoms: _100  and  _102
REMARK   46  A    between atoms: _102  and  _103
REMARK   47  A    between atoms: _102  and  _105
REMARK   48  A    between atoms: _108  and  _110
REMARK   49  A    between atoms: _110  and  _111
REMARK   50  A    between atoms: _110  and  _113
REMARK   51  A    between atoms: _113  and  _114
REMARK   52  A    between atoms: _114  and  _115
REMARK   53  A    between atoms: _115  and  _116
REMARK   54  A    between atoms: _125  and  _127
REMARK   55  A    between atoms: _127  and  _128
REMARK   56  A    between atoms: _127  and  _130
REMARK   57  A    between atoms: _130  and  _131
REMARK   58  A    between atoms: _131  and  _132
REMARK   59  A    between atoms: _137  and  _139
REMARK   60  A    between atoms: _139  and  _140
REMARK   61  A    between atoms: _139  and  _142
REMARK   62  A    between atoms: _142  and  _143
REMARK   63  A    between atoms: _148  and  _149
REMARK   64  A    between atoms: _151  and  _153
REMARK   65  A    between atoms: _153  and  _154
REMARK   66  A    between atoms: _153  and  _156
REMARK   67  A    between atoms: _159  and  _161
REMARK   68  A    between atoms: _161  and  _162
REMARK   69  A    between atoms: _165  and  _166
REMARK                            x       y       z     vdW  Elec       q    Type
REMARK                         _______ _______ _______ _____ _____    ______ ____
ROOT
ATOM      1  CA  GLU A   1      -2.705  14.109 -21.709  0.00  0.00    +0.134 C 
ENDROOT
BRANCH   1   2
ATOM      2  N   GLU A   1      -3.084  13.420 -20.482  0.00  0.00    -0.239 NA
ATOM      3  H   GLU A   1      -3.166  13.983 -19.611  0.00  0.00    +0.142 HD
ENDBRANCH   1   2
BRANCH   1   4
ATOM      4  C   GLU A   1      -1.774  13.284 -22.590  0.00  0.00    +0.224 C 
ATOM      5  O   GLU A   1      -0.653  12.928 -22.203  0.00  0.00    -0.287 OA
ENDBRANCH   1   4
BRANCH   1   6
ATOM      6  CB  GLU A   1      -2.067  15.471 -21.399  0.00  0.00    +0.037 C 
BRANCH   6   7
ATOM      7  CG  GLU A   1      -1.935  16.392 -22.606  0.00  0.00    +0.116 C 
BRANCH   7   8
ATOM      8  CD  GLU A   1      -3.268  16.620 -23.300  0.00  0.00    +0.365 C 
ATOM      9  OE2 GLU A   1      -4.198  17.158 -22.658  0.00  0.00    -0.246 OA
ATOM     10  OE1 GLU A   1      -3.391  16.248 -24.484  0.00  0.00    -0.246 OA
ENDBRANCH   7   8
ENDBRANCH   6   7
ENDBRANCH   1   6
TORSDOF 5
REMARK  Name = ../refined-set-2016/4ejl/4ejl_pocket.pdb
REMARK  69 active torsions:
REMARK  status: ('A' for Active; 'I' for Inactive)
REMARK    1  A    between atoms: _1  and  _3
REMARK    2  A    between atoms: _3  and  _4
REMARK    3  A    between atoms: _3  and  _6
REMARK    4  A    between atoms: _6  and  _7
REMARK    5  A    between atoms: _7  and  _8
REMARK    6  A    between atoms: _11  and  _13
REMARK    7  A    between atoms: _13  and  _14
REMARK    8  A    between atoms: _13  and  _16
REMARK    9  A    between atoms: _16  and  _17
REMARK   10  A    between atoms: _27  and  _29
REMARK   11  A    between atoms: _29  and  _30
REMARK   12  A    between atoms: _29  and  _32
REMARK   13  A    between atoms: _32  and  _33
REMARK   14  A    between atoms: _33  and  _34
REMARK   15  A    between atoms: _34  and  _35
REMARK   16  A    between atoms: _35  and  _36
REMARK   17  A    between atoms: _41  and  _42
REMARK   18  A    between atoms: _47  and  _49
REMARK   19  A    between atoms: _49  and  _50
REMARK   20  A    between atoms: _49  and  _52
REMARK   21  A    between atoms: _52  and  _53
REMARK   22  A    between atoms: _53  and  _54
REMARK   23  A    between atoms: _54  and  _55
REMARK   24  A    between atoms: _55  and  _56
REMARK   25  A    between atoms: _60  and  _62
REMARK   26  A    between atoms: _62  and  _63
REMARK   27  A    between atoms: _62  and  _65
REMARK   28  A    between atoms: _65  and  _66
REMARK   29  A    between atoms: _66  and  _67
REMARK   30  A    between atoms: _69  and  _71
REMARK   31  A    between atoms: _71  and  _72
REMARK   32  A    between atoms: _71  and  _74
REMARK   33  A    between atoms: _74  and  _75
REMARK   34  A    between atoms: _78  and  _80
REMARK   35  A    between atoms: _80  and  _81
REMARK   36  A    between atoms: _80  and  _83
REMARK   37  A    between atoms: _83  and  _84
REMARK   38  A    between atoms: _87  and  _89
REMARK   39  A    between atoms: _89  and  _90
REMARK   40  A    between atoms: _89  and  _92
REMARK   41  A    between atoms: _92  and  _93
REMARK   42  A    between atoms: _93  and  _94
REMARK   43  A    between atoms: _94  and  _95
REMARK   44  A    between atoms: _95  and  _96
REMARK   45  A    between atoms: _100  and  _102
REMARK   46  A    between atoms: _102  and  _103
REMARK   47  A    between atoms: _102  and  _105
REMARK   48  A    between atoms: _108  and  _110
REMARK   49  A    between atoms: _110  and  _111
REMARK   50  A    between atoms: _110  and  _113
REMARK   51  A    between atoms: _113  and  _114
REMARK   52  A    between atoms: _114  and  _115
REMARK   53  A    between atoms: _115  and  _116
REMARK   54  A    between atoms: _125  and  _127
REMARK   55  A    between atoms: _127  and  _128
REMARK   56  A    between atoms: _127  and  _130
REMARK   57  A    between atoms: _130  and  _131
REMARK   58  A    between atoms: _131  and  _132
REMARK   59  A    between atoms: _137  and  _139
REMARK   60  A    between atoms: _139  and  _140
REMARK   61  A    between atoms: _139  and  _142
REMARK   62  A    between atoms: _142  and  _143
REMARK   63  A    between atoms: _148  and  _149
REMARK   64  A    between atoms: _151  and  _153
REMARK   65  A    between atoms: _153  and  _154
REMARK   66  A    between atoms: _153  and  _156
REMARK   67  A    between atoms: _159  and  _161
REMARK   68  A    between atoms: _161  and  _162
REMARK   69  A    between atoms: _165  and  _166
REMARK                            x       y       z     vdW  Elec       q    Type
REMARK                         _______ _______ _______ _____ _____    ______ ____
ROOT
ATOM      1  C   LYS A   2     -15.321  16.335 -27.148  0.00  0.00    +0.244 C 
ATOM      2  O   LYS A   2     -14.886  15.516 -26.329  0.00  0.00    -0.273 OA
ATOM      3  N   PRO A   3     -15.607  17.615 -26.828  0.00  0.00    -0.272 N 
ATOM      4  CA  PRO A   3     -15.451  18.096 -25.453  0.00  0.00    +0.152 C 
ATOM      5  CB  PRO A   3     -15.659  19.611 -25.584  0.00  0.00    +0.031 C 
ATOM      6  CG  PRO A   3     -16.479  19.786 -26.816  0.00  0.00    +0.024 C 
ATOM      7  CD  PRO A   3     -16.031  18.697 -27.743  0.00  0.00    +0.094 C 
ENDROOT
BRANCH   4   8
ATOM      8  C   PRO A   3     -16.484  17.474 -24.514  0.00  0.00    +0.241 C 
ATOM      9  N   LYS A   4     -16.012  16.943 -23.389  0.00  0.00    -0.297 N 
ATOM     10  H   LYS A   4     -14.989  16.978 -23.207  0.00  0.00    +0.150 HD
ATOM     11  O   PRO A   3     -17.681  17.458 -24.824  0.00  0.00    -0.273 OA
BRANCH   9  12
ATOM     12  CA  LYS A   4     -16.883  16.313 -22.402  0.00  0.00    +0.149 C 
BRANCH  12  13
ATOM     13  C   LYS A   4     -16.440  16.651 -20.986  0.00  0.00    +0.241 C 
ATOM     14  N   MET A   5     -17.412  16.702 -20.079  0.00  0.00    -0.297 N 
ATOM     15  H   MET A   5     -18.400  16.615 -20.392  0.00  0.00    +0.150 HD
ATOM     16  O   LYS A   4     -15.248  16.866 -20.723  0.00  0.00    -0.273 OA
BRANCH  14  17
ATOM     17  CA  MET A   5     -17.131  16.876 -18.660  0.00  0.00    +0.149 C 
BRANCH  17  18
ATOM     18  C   MET A   5     -17.533  15.623 -17.905  0.00  0.00    +0.241 C 
ATOM     19  N   ILE A   6     -16.589  15.037 -17.182  0.00  0.00    -0.298 N 
ATOM     20  H   ILE A   6     -15.608  15.380 -17.234  0.00  0.00    +0.150 HD
ATOM     21  O   MET A   5     -18.681  15.184 -17.994  0.00  0.00    -0.273 OA
BRANCH  19  22
ATOM     22  CA  ILE A   6     -16.920  13.917 -16.316  0.00  0.00    +0.137 C 
BRANCH  22  23
ATOM     23  CB  ILE A   6     -16.054  12.666 -16.569  0.00  0.00    +0.026 C 
ATOM     24  CG2 ILE A   6     -16.505  11.971 -17.844  0.00  0.00    +0.002 C 
BRANCH  23  25
ATOM     25  CG1 ILE A   6     -14.567  13.016 -16.583  0.00  0.00    +0.002 C 
ATOM     26  CD1 ILE A   6     -13.681  11.820 -16.363  0.00  0.00    +0.000 C 
ENDBRANCH  23  25
ENDBRANCH  22  23
BRANCH  22  27
ATOM     27  C   ILE A   6     -16.828  14.305 -14.859  0.00  0.00    +0.227 C 
ATOM     28  O   ILE A   6     -15.996  15.124 -14.481  0.00  0.00    -0.286 OA
ENDBRANCH  22  27
ENDBRANCH  19  22
ENDBRANCH  17  18
BRANCH  17  29
ATOM     29  CB  MET A   5     -17.881  18.080 -18.097  0.00  0.00    +0.041 C 
BRANCH  29  30
ATOM     30  CG  MET A   5     -17.413  19.418 -18.648  0.00  0.00    +0.060 C 
BRANCH  30  31
ATOM     31  SD  MET A   5     -17.273  20.633 -17.329  0.00  0.00    -0.139 S 
ATOM     32  CE  MET A   5     -18.976  21.186 -17.183  0.00  0.00    +0.069 C 
ENDBRANCH  30  31
ENDBRANCH  29  30
ENDBRANCH  17  29
ENDBRANCH  14  17
ENDBRANCH  12  13
BRANCH  12  33
ATOM     33  CB  LYS A   4     -16.923  14.787 -22.584  0.00  0.00    +0.029 C 
BRANCH  33  34
ATOM     34  CG  LYS A   4     -18.216  14.150 -22.100  0.00  0.00    +0.000 C 
BRANCH  34  35
ATOM     35  CD  LYS A   4     -18.013  12.731 -21.583  0.00  0.00    -0.024 C 
BRANCH  35  36
ATOM     36  CE  LYS A   4     -19.331  12.129 -21.113  0.00  0.00    -0.086 C 
BRANCH  36  37
ATOM     37  NZ  LYS A   4     -19.133  10.995 -20.172  0.00  0.00    +0.380 N 
ATOM     38  HZ1 LYS A   4     -18.615  11.328 -19.334  0.00  0.00    -0.089 HD
ATOM     39  HZ2 LYS A   4     -20.059  10.621 -19.882  0.00  0.00    -0.089 HD
ATOM     40  HZ3 LYS A   4     -18.587  10.246 -20.644  0.00  0.00    -0.089 HD
ENDBRANCH  36  37
ENDBRANCH  35  36
ENDBRANCH  34  35
ENDBRANCH  33  34
ENDBRANCH  12  33
ENDBRANCH   9  12
ENDBRANCH   4   8
BRANCH   1  41
ATOM     41  CA  LYS A   2     -15.515  15.926 -28.608  0.00  0.00    +0.149 C 
BRANCH  41  43
ATOM     42  C   TRP A   1     -13.670  15.175 -30.004  0.00  0.00    +0.239 C 
ATOM     43  N   LYS A   2     -14.516  14.936 -29.009  0.00  0.00    -0.297 N 
ATOM     44  H   LYS A   2     -14.467  14.027 -28.505  0.00  0.00    +0.150 HD
ATOM     45  O   TRP A   1     -13.808  16.127 -30.774  0.00  0.00    -0.274 OA
BRANCH  42  46
ATOM     46  CA  TRP A   1     -12.530  14.198 -30.178  0.00  0.00    +0.149 C 
BRANCH  46  47
ATOM     47  N   TRP A   1     -12.002  14.259 -31.536  0.00  0.00    -0.238 NA
ATOM     48  H   TRP A   1     -11.455  15.095 -31.826  0.00  0.00    +0.142 HD
ENDBRANCH  46  47
BRANCH  46  49
ATOM     49  CB  TRP A   1     -11.414  14.478 -29.167  0.00  0.00    +0.054 C 
BRANCH  49  50
ATOM     50  CG  TRP A   1     -10.723  15.792 -29.420  0.00  0.00    -0.002 A 
ATOM     51  CD2 TRP A   1     -11.096  17.106 -28.882  0.00  0.00    +0.013 A 
ATOM     52  CE3 TRP A   1     -12.083  17.566 -28.010  0.00  0.00    +0.001 A 
ATOM     53  CZ3 TRP A   1     -12.117  18.931 -27.702  0.00  0.00    +0.000 A 
ATOM     54  CH2 TRP A   1     -11.195  19.831 -28.254  0.00  0.00    +0.001 A 
ATOM     55  CZ2 TRP A   1     -10.187  19.417 -29.132  0.00  0.00    +0.017 A 
ATOM     56  CE2 TRP A   1     -10.138  18.067 -29.445  0.00  0.00    +0.056 A 
ATOM     57  NE1 TRP A   1      -9.298  17.370 -30.247  0.00  0.00    -0.352 N 
ATOM     58  HE1 TRP A   1      -8.513  17.788 -30.786  0.00  0.00    +0.166 HD
ATOM     59  CD1 TRP A   1      -9.623  16.037 -30.251  0.00  0.00    +0.068 A 
ENDBRANCH  49  50
ENDBRANCH  46  49
ENDBRANCH  42  46
ENDBRANCH  41  43
BRANCH  41  60
ATOM     60  CB  LYS A   2     -16.959  15.470 -28.898  0.00  0.00    +0.029 C 
BRANCH  60  61
ATOM     61  CG  LYS A   2     -17.225  13.984 -28.784  0.00  0.00    +0.000 C 
BRANCH  61  62
ATOM     62  CD  LYS A   2     -18.721  13.706 -28.764  0.00  0.00    -0.024 C 
BRANCH  62  63
ATOM     63  CE  LYS A   2     -19.020  12.206 -28.770  0.00  0.00    -0.086 C 
BRANCH  63  64
ATOM     64  NZ  LYS A   2     -20.452  11.885 -28.479  0.00  0.00    +0.380 N 
ATOM     65  HZ1 LYS A   2     -20.704  12.251 -27.539  0.00  0.00    -0.089 HD
ATOM     66  HZ2 LYS A   2     -20.586  10.854 -28.498  0.00  0.00    -0.089 HD
ATOM     67  HZ3 LYS A   2     -21.058  12.328 -29.198  0.00  0.00    -0.089 HD
ENDBRANCH  63  64
ENDBRANCH  62  63
ENDBRANCH  61  62
ENDBRANCH  60  61
ENDBRANCH  41  60
ENDBRANCH   1  41
TORSDOF 28
REMARK  Name = ../refined-set-2016/4ejl/4ejl_pocket.pdb
REMARK  69 active torsions:
REMARK  status: ('A' for Active; 'I' for Inactive)
REMARK    1  A    between atoms: _1  and  _3
REMARK    2  A    between atoms: _3  and  _4
REMARK    3  A    between atoms: _3  and  _6
REMARK    4  A    between atoms: _6  and  _7
REMARK    5  A    between atoms: _7  and  _8
REMARK    6  A    between atoms: _11  and  _13
REMARK    7  A    between atoms: _13  and  _14
REMARK    8  A    between atoms: _13  and  _16
REMARK    9  A    between atoms: _16  and  _17
REMARK   10  A    between atoms: _27  and  _29
REMARK   11  A    between atoms: _29  and  _30
REMARK   12  A    between atoms: _29  and  _32
REMARK   13  A    between atoms: _32  and  _33
REMARK   14  A    between atoms: _33  and  _34
REMARK   15  A    between atoms: _34  and  _35
REMARK   16  A    between atoms: _35  and  _36
REMARK   17  A    between atoms: _41  and  _42
REMARK   18  A    between atoms: _47  and  _49
REMARK   19  A    between atoms: _49  and  _50
REMARK   20  A    between atoms: _49  and  _52
REMARK   21  A    between atoms: _52  and  _53
REMARK   22  A    between atoms: _53  and  _54
REMARK   23  A    between atoms: _54  and  _55
REMARK   24  A    between atoms: _55  and  _56
REMARK   25  A    between atoms: _60  and  _62
REMARK   26  A    between atoms: _62  and  _63
REMARK   27  A    between atoms: _62  and  _65
REMARK   28  A    between atoms: _65  and  _66
REMARK   29  A    between atoms: _66  and  _67
REMARK   30  A    between atoms: _69  and  _71
REMARK   31  A    between atoms: _71  and  _72
REMARK   32  A    between atoms: _71  and  _74
REMARK   33  A    between atoms: _74  and  _75
REMARK   34  A    between atoms: _78  and  _80
REMARK   35  A    between atoms: _80  and  _81
REMARK   36  A    between atoms: _80  and  _83
REMARK   37  A    between atoms: _83  and  _84
REMARK   38  A    between atoms: _87  and  _89
REMARK   39  A    between atoms: _89  and  _90
REMARK   40  A    between atoms: _89  and  _92
REMARK   41  A    between atoms: _92  and  _93
REMARK   42  A    between atoms: _93  and  _94
REMARK   43  A    between atoms: _94  and  _95
REMARK   44  A    between atoms: _95  and  _96
REMARK   45  A    between atoms: _100  and  _102
REMARK   46  A    between atoms: _102  and  _103
REMARK   47  A    between atoms: _102  and  _105
REMARK   48  A    between atoms: _108  and  _110
REMARK   49  A    between atoms: _110  and  _111
REMARK   50  A    between atoms: _110  and  _113
REMARK   51  A    between atoms: _113  and  _114
REMARK   52  A    between atoms: _114  and  _115
REMARK   53  A    between atoms: _115  and  _116
REMARK   54  A    between atoms: _125  and  _127
REMARK   55  A    between atoms: _127  and  _128
REMARK   56  A    between atoms: _127  and  _130
REMARK   57  A    between atoms: _130  and  _131
REMARK   58  A    between atoms: _131  and  _132
REMARK   59  A    between atoms: _137  and  _139
REMARK   60  A    between atoms: _139  and  _140
REMARK   61  A    between atoms: _139  and  _142
REMARK   62  A    between atoms: _142  and  _143
REMARK   63  A    between atoms: _148  and  _149
REMARK   64  A    between atoms: _151  and  _153
REMARK   65  A    between atoms: _153  and  _154
REMARK   66  A    between atoms: _153  and  _156
REMARK   67  A    between atoms: _159  and  _161
REMARK   68  A    between atoms: _161  and  _162
REMARK   69  A    between atoms: _165  and  _166
REMARK                            x       y       z     vdW  Elec       q    Type
REMARK                         _______ _______ _______ _____ _____    ______ ____
ROOT
ATOM      1  CA  ARG A   4     -11.495  15.210 -24.832  0.00  0.00    +0.149 C 
ENDROOT
BRANCH   1   4
ATOM      2  C   VAL A   3     -12.214  15.815 -22.586  0.00  0.00    +0.241 C 
ATOM      3  O   VAL A   3     -13.239  16.355 -22.993  0.00  0.00    -0.273 OA
ATOM      4  N   ARG A   4     -11.295  15.322 -23.400  0.00  0.00    -0.297 N 
ATOM      5  H   ARG A   4     -10.392  15.001 -22.996  0.00  0.00    +0.150 HD
BRANCH   2   6
ATOM      6  CA  VAL A   3     -11.912  15.694 -21.083  0.00  0.00    +0.149 C 
BRANCH   6   9
ATOM      7  C   LYS A   2     -11.957  17.557 -19.470  0.00  0.00    +0.241 C 
ATOM      8  O   LYS A   2     -10.733  17.521 -19.278  0.00  0.00    -0.273 OA
ATOM      9  N   VAL A   3     -12.602  16.729 -20.291  0.00  0.00    -0.297 N 
ATOM     10  H   VAL A   3     -13.635  16.816 -20.377  0.00  0.00    +0.150 HD
BRANCH   7  11
ATOM     11  CA  LYS A   2     -12.829  18.577 -18.751  0.00  0.00    +0.149 C 
BRANCH  11  14
ATOM     12  C   ILE A   1     -13.409  17.793 -16.510  0.00  0.00    +0.238 C 
ATOM     13  O   ILE A   1     -14.380  17.148 -16.921  0.00  0.00    -0.274 OA
ATOM     14  N   LYS A   2     -12.616  18.504 -17.309  0.00  0.00    -0.297 N 
ATOM     15  H   LYS A   2     -11.818  19.025 -16.892  0.00  0.00    +0.150 HD
BRANCH  12  16
ATOM     16  CA  ILE A   1     -13.062  17.826 -15.010  0.00  0.00    +0.145 C 
BRANCH  16  17
ATOM     17  CB  ILE A   1     -11.732  17.074 -14.723  0.00  0.00    +0.025 C 
ATOM     18  CG2 ILE A   1     -11.258  17.344 -13.294  0.00  0.00    +0.002 C 
BRANCH  17  19
ATOM     19  CG1 ILE A   1     -11.843  15.576 -15.047  0.00  0.00    +0.002 C 
ATOM     20  CD1 ILE A   1     -10.503  14.913 -15.290  0.00  0.00    +0.000 C 
ENDBRANCH  17  19
ENDBRANCH  16  17
BRANCH  16  21
ATOM     21  N   ILE A   1     -14.192  17.401 -14.157  0.00  0.00    -0.238 NA
ATOM     22  H   ILE A   1     -14.586  16.446 -14.274  0.00  0.00    +0.142 HD
ENDBRANCH  16  21
ENDBRANCH  12  16
ENDBRANCH  11  14
BRANCH  11  23
ATOM     23  CB  LYS A   2     -12.542  19.988 -19.280  0.00  0.00    +0.029 C 
BRANCH  23  24
ATOM     24  CG  LYS A   2     -13.542  21.056 -18.857  0.00  0.00    +0.000 C 
BRANCH  24  25
ATOM     25  CD  LYS A   2     -13.015  22.444 -19.216  0.00  0.00    -0.024 C 
BRANCH  25  26
ATOM     26  CE  LYS A   2     -14.099  23.512 -19.105  0.00  0.00    -0.086 C 
BRANCH  26  27
ATOM     27  NZ  LYS A   2     -13.565  24.852 -19.461  0.00  0.00    +0.380 N 
ATOM     28  HZ1 LYS A   2     -12.788  25.097 -18.815  0.00  0.00    -0.089 HD
ATOM     29  HZ2 LYS A   2     -14.323  25.559 -19.377  0.00  0.00    -0.089 HD
ATOM     30  HZ3 LYS A   2     -13.212  24.835 -20.439  0.00  0.00    -0.089 HD
ENDBRANCH  26  27
ENDBRANCH  25  26
ENDBRANCH  24  25
ENDBRANCH  23  24
ENDBRANCH  11  23
ENDBRANCH   7  11
ENDBRANCH   6   9
BRANCH   6  31
ATOM     31  CB  VAL A   3     -12.223  14.253 -20.576  0.00  0.00    +0.027 C 
ATOM     32  CG2 VAL A   3     -11.497  13.969 -19.266  0.00  0.00    +0.002 C 
ATOM     33  CG1 VAL A   3     -13.720  14.032 -20.416  0.00  0.00    +0.002 C 
ENDBRANCH   6  31
ENDBRANCH   2   6
ENDBRANCH   1   4
BRANCH   1  34
ATOM     34  C   ARG A   4     -11.875  13.766 -25.093  0.00  0.00    +0.241 C 
ATOM     35  O   ARG A   4     -11.133  12.840 -24.743  0.00  0.00    -0.273 OA
ATOM     36  N   GLN A   5     -13.043  13.569 -25.692  0.00  0.00    -0.297 N 
ATOM     37  H   GLN A   5     -13.607  14.387 -26.000  0.00  0.00    +0.150 HD
BRANCH  36  38
ATOM     38  CA  GLN A   5     -13.544  12.225 -25.923  0.00  0.00    +0.149 C 
BRANCH  38  39
ATOM     39  C   GLN A   5     -13.134  11.661 -27.290  0.00  0.00    +0.241 C 
ATOM     40  N   TYR A   6     -12.335  10.600 -27.280  0.00  0.00    -0.298 N 
ATOM     41  H   TYR A   6     -11.884  10.297 -26.393  0.00  0.00    +0.150 HD
ATOM     42  O   GLN A   5     -13.555  12.169 -28.339  0.00  0.00    -0.273 OA
BRANCH  40  43
ATOM     43  CA  TYR A   6     -12.090   9.859 -28.512  0.00  0.00    +0.141 C 
BRANCH  43  44
ATOM     44  C   TYR A   6     -12.903   8.578 -28.513  0.00  0.00    +0.227 C 
ATOM     45  O   TYR A   6     -12.931   7.848 -27.523  0.00  0.00    -0.286 OA
ENDBRANCH  43  44
BRANCH  43  46
ATOM     46  CB  TYR A   6     -10.608   9.537 -28.704  0.00  0.00    +0.054 C 
BRANCH  46  47
ATOM     47  CG  TYR A   6      -9.691  10.733 -28.732  0.00  0.00    -0.020 A 
ATOM     48  CD2 TYR A   6      -9.364  11.405 -27.555  0.00  0.00    -0.001 A 
ATOM     49  CE2 TYR A   6      -8.502  12.490 -27.563  0.00  0.00    +0.036 A 
ATOM     50  CZ  TYR A   6      -7.952  12.922 -28.756  0.00  0.00    +0.134 A 
ATOM     51  CE1 TYR A   6      -8.263  12.279 -29.948  0.00  0.00    +0.036 A 
ATOM     52  CD1 TYR A   6      -9.127  11.183 -29.930  0.00  0.00    -0.001 A 
BRANCH  50  53
ATOM     53  OH  TYR A   6      -7.112  14.003 -28.728  0.00  0.00    -0.506 OA
ATOM     54  HH  TYR A   6      -6.796  14.198 -29.646  0.00  0.00    +0.292 HD
ENDBRANCH  50  53
ENDBRANCH  46  47
ENDBRANCH  43  46
ENDBRANCH  40  43
ENDBRANCH  38  39
BRANCH  38  55
ATOM     55  CB  GLN A   5     -15.069  12.191 -25.771  0.00  0.00    +0.039 C 
BRANCH  55  56
ATOM     56  CG  GLN A   5     -15.664  10.871 -26.210  0.00  0.00    +0.087 C 
BRANCH  56  57
ATOM     57  CD  GLN A   5     -17.126  10.746 -25.887  0.00  0.00    +0.219 C 
ATOM     58  OE1 GLN A   5     -17.616  11.338 -24.927  0.00  0.00    -0.275 OA
ATOM     59  NE2 GLN A   5     -17.833   9.947 -26.674  0.00  0.00    -0.329 N 
ATOM     60 HE21 GLN A   5     -18.846   9.800 -26.491  0.00  0.00    +0.145 HD
ATOM     61 HE22 GLN A   5     -17.375   9.467 -27.475  0.00  0.00    +0.145 HD
ENDBRANCH  56  57
ENDBRANCH  55  56
ENDBRANCH  38  55
ENDBRANCH  36  38
ENDBRANCH   1  34
BRANCH   1  62
ATOM     62  CB  ARG A   4     -10.212  15.566 -25.590  0.00  0.00    +0.033 C 
BRANCH  62  63
ATOM     63  CG  ARG A   4      -9.610  16.914 -25.205  0.00  0.00    +0.045 C 
BRANCH  63  64
ATOM     64  CD  ARG A   4      -8.611  17.433 -26.234  0.00  0.00    +0.174 C 
BRANCH  64  65
ATOM     65  NE  ARG A   4      -7.633  16.412 -26.601  0.00  0.00    -0.265 N 
ATOM     66  CZ  ARG A   4      -6.484  16.200 -25.964  0.00  0.00    +0.342 C 
ATOM     67  NH2 ARG A   4      -6.148  16.955 -24.925  0.00  0.00    -0.292 N 
ATOM     68 HH21 ARG A   4      -5.249  16.787 -24.429  0.00  0.00    +0.255 HD
ATOM     69 HH22 ARG A   4      -6.783  17.714 -24.607  0.00  0.00    +0.255 HD
ATOM     70  NH1 ARG A   4      -5.670  15.232 -26.380  0.00  0.00    -0.292 N 
ATOM     71 HH11 ARG A   4      -4.771  15.061 -25.887  0.00  0.00    +0.255 HD
ATOM     72 HH12 ARG A   4      -5.934  14.647 -27.198  0.00  0.00    +0.255 HD
ATOM     73  HE  ARG A   4      -7.850  15.807 -27.419  0.00  0.00    +0.259 HD
ENDBRANCH  64  65
ENDBRANCH  63  64
ENDBRANCH  62  63
ENDBRANCH   1  62
TORSDOF 30
REMARK  Name = ../refined-set-2016/4ejl/4ejl_pocket.pdb
REMARK  69 active torsions:
REMARK  status: ('A' for Active; 'I' for Inactive)
REMARK    1  A    between atoms: _1  and  _3
REMARK    2  A    between atoms: _3  and  _4
REMARK    3  A    between atoms: _3  and  _6
REMARK    4  A    between atoms: _6  and  _7
REMARK    5  A    between atoms: _7  and  _8
REMARK    6  A    between atoms: _11  and  _13
REMARK    7  A    between atoms: _13  and  _14
REMARK    8  A    between atoms: _13  and  _16
REMARK    9  A    between atoms: _16  and  _17
REMARK   10  A    between atoms: _27  and  _29
REMARK   11  A    between atoms: _29  and  _30
REMARK   12  A    between atoms: _29  and  _32
REMARK   13  A    between atoms: _32  and  _33
REMARK   14  A    between atoms: _33  and  _34
REMARK   15  A    between atoms: _34  and  _35
REMARK   16  A    between atoms: _35  and  _36
REMARK   17  A    between atoms: _41  and  _42
REMARK   18  A    between atoms: _47  and  _49
REMARK   19  A    between atoms: _49  and  _50
REMARK   20  A    between atoms: _49  and  _52
REMARK   21  A    between atoms: _52  and  _53
REMARK   22  A    between atoms: _53  and  _54
REMARK   23  A    between atoms: _54  and  _55
REMARK   24  A    between atoms: _55  and  _56
REMARK   25  A    between atoms: _60  and  _62
REMARK   26  A    between atoms: _62  and  _63
REMARK   27  A    between atoms: _62  and  _65
REMARK   28  A    between atoms: _65  and  _66
REMARK   29  A    between atoms: _66  and  _67
REMARK   30  A    between atoms: _69  and  _71
REMARK   31  A    between atoms: _71  and  _72
REMARK   32  A    between atoms: _71  and  _74
REMARK   33  A    between atoms: _74  and  _75
REMARK   34  A    between atoms: _78  and  _80
REMARK   35  A    between atoms: _80  and  _81
REMARK   36  A    between atoms: _80  and  _83
REMARK   37  A    between atoms: _83  and  _84
REMARK   38  A    between atoms: _87  and  _89
REMARK   39  A    between atoms: _89  and  _90
REMARK   40  A    between atoms: _89  and  _92
REMARK   41  A    between atoms: _92  and  _93
REMARK   42  A    between atoms: _93  and  _94
REMARK   43  A    between atoms: _94  and  _95
REMARK   44  A    between atoms: _95  and  _96
REMARK   45  A    between atoms: _100  and  _102
REMARK   46  A    between atoms: _102  and  _103
REMARK   47  A    between atoms: _102  and  _105
REMARK   48  A    between atoms: _108  and  _110
REMARK   49  A    between atoms: _110  and  _111
REMARK   50  A    between atoms: _110  and  _113
REMARK   51  A    between atoms: _113  and  _114
REMARK   52  A    between atoms: _114  and  _115
REMARK   53  A    between atoms: _115  and  _116
REMARK   54  A    between atoms: _125  and  _127
REMARK   55  A    between atoms: _127  and  _128
REMARK   56  A    between atoms: _127  and  _130
REMARK   57  A    between atoms: _130  and  _131
REMARK   58  A    between atoms: _131  and  _132
REMARK   59  A    between atoms: _137  and  _139
REMARK   60  A    between atoms: _139  and  _140
REMARK   61  A    between atoms: _139  and  _142
REMARK   62  A    between atoms: _142  and  _143
REMARK   63  A    between atoms: _148  and  _149
REMARK   64  A    between atoms: _151  and  _153
REMARK   65  A    between atoms: _153  and  _154
REMARK   66  A    between atoms: _153  and  _156
REMARK   67  A    between atoms: _159  and  _161
REMARK   68  A    between atoms: _161  and  _162
REMARK   69  A    between atoms: _165  and  _166
REMARK                            x       y       z     vdW  Elec       q    Type
REMARK                         _______ _______ _______ _____ _____    ______ ____
ROOT
ATOM      1  C   VAL A   1      -8.195  13.536 -21.588  0.00  0.00    +0.238 C 
ATOM      2  N   GLY A   2      -7.536  13.616 -20.438  0.00  0.00    -0.296 N 
ATOM      3  H   GLY A   2      -6.912  12.836 -20.148  0.00  0.00    +0.150 HD
ATOM      4  O   VAL A   1      -8.933  14.432 -21.992  0.00  0.00    -0.274 OA
ENDROOT
BRANCH   1   5
ATOM      5  CA  VAL A   1      -8.021  12.249 -22.389  0.00  0.00    +0.145 C 
BRANCH   5   6
ATOM      6  CB  VAL A   1      -7.231  12.511 -23.688  0.00  0.00    +0.025 C 
ATOM      7  CG2 VAL A   1      -5.949  13.280 -23.406  0.00  0.00    +0.002 C 
ATOM      8  CG1 VAL A   1      -6.920  11.204 -24.398  0.00  0.00    +0.002 C 
ENDBRANCH   5   6
BRANCH   5   9
ATOM      9  N   VAL A   1      -9.342  11.696 -22.672  0.00  0.00    -0.238 NA
ATOM     10  H   VAL A   1      -9.891  12.096 -23.459  0.00  0.00    +0.142 HD
ENDBRANCH   5   9
ENDBRANCH   1   5
BRANCH   2  11
ATOM     11  CA  GLY A   2      -7.676  14.781 -19.578  0.00  0.00    +0.176 C 
BRANCH  11  12
ATOM     12  C   GLY A   2      -6.610  14.876 -18.506  0.00  0.00    +0.246 C 
ATOM     13  N   PRO A   3      -6.788  15.814 -17.551  0.00  0.00    -0.273 N 
ATOM     14  CA  PRO A   3      -5.864  15.936 -16.425  0.00  0.00    +0.140 C 
ATOM     15  CB  PRO A   3      -5.999  17.409 -16.026  0.00  0.00    +0.030 C 
ATOM     16  CG  PRO A   3      -7.396  17.785 -16.417  0.00  0.00    +0.024 C 
ATOM     17  CD  PRO A   3      -7.835  16.856 -17.520  0.00  0.00    +0.094 C 
ATOM     18  O   GLY A   2      -5.626  14.129 -18.542  0.00  0.00    -0.273 OA
BRANCH  14  19
ATOM     19  C   PRO A   3      -6.269  15.008 -15.276  0.00  0.00    +0.227 C 
ATOM     20  O   PRO A   3      -6.718  15.462 -14.221  0.00  0.00    -0.286 OA
ENDBRANCH  14  19
ENDBRANCH  11  12
ENDBRANCH   2  11
TORSDOF 6
REMARK  Name = ../refined-set-2016/4ejl/4ejl_pocket.pdb
REMARK  69 active torsions:
REMARK  status: ('A' for Active; 'I' for Inactive)
REMARK    1  A    between atoms: _1  and  _3
REMARK    2  A    between atoms: _3  and  _4
REMARK    3  A    between atoms: _3  and  _6
REMARK    4  A    between atoms: _6  and  _7
REMARK    5  A    between atoms: _7  and  _8
REMARK    6  A    between atoms: _11  and  _13
REMARK    7  A    between atoms: _13  and  _14
REMARK    8  A    between atoms: _13  and  _16
REMARK    9  A    between atoms: _16  and  _17
REMARK   10  A    between atoms: _27  and  _29
REMARK   11  A    between atoms: _29  and  _30
REMARK   12  A    between atoms: _29  and  _32
REMARK   13  A    between atoms: _32  and  _33
REMARK   14  A    between atoms: _33  and  _34
REMARK   15  A    between atoms: _34  and  _35
REMARK   16  A    between atoms: _35  and  _36
REMARK   17  A    between atoms: _41  and  _42
REMARK   18  A    between atoms: _47  and  _49
REMARK   19  A    between atoms: _49  and  _50
REMARK   20  A    between atoms: _49  and  _52
REMARK   21  A    between atoms: _52  and  _53
REMARK   22  A    between atoms: _53  and  _54
REMARK   23  A    between atoms: _54  and  _55
REMARK   24  A    between atoms: _55  and  _56
REMARK   25  A    between atoms: _60  and  _62
REMARK   26  A    between atoms: _62  and  _63
REMARK   27  A    between atoms: _62  and  _65
REMARK   28  A    between atoms: _65  and  _66
REMARK   29  A    between atoms: _66  and  _67
REMARK   30  A    between atoms: _69  and  _71
REMARK   31  A    between atoms: _71  and  _72
REMARK   32  A    between atoms: _71  and  _74
REMARK   33  A    between atoms: _74  and  _75
REMARK   34  A    between atoms: _78  and  _80
REMARK   35  A    between atoms: _80  and  _81
REMARK   36  A    between atoms: _80  and  _83
REMARK   37  A    between atoms: _83  and  _84
REMARK   38  A    between atoms: _87  and  _89
REMARK   39  A    between atoms: _89  and  _90
REMARK   40  A    between atoms: _89  and  _92
REMARK   41  A    between atoms: _92  and  _93
REMARK   42  A    between atoms: _93  and  _94
REMARK   43  A    between atoms: _94  and  _95
REMARK   44  A    between atoms: _95  and  _96
REMARK   45  A    between atoms: _100  and  _102
REMARK   46  A    between atoms: _102  and  _103
REMARK   47  A    between atoms: _102  and  _105
REMARK   48  A    between atoms: _108  and  _110
REMARK   49  A    between atoms: _110  and  _111
REMARK   50  A    between atoms: _110  and  _113
REMARK   51  A    between atoms: _113  and  _114
REMARK   52  A    between atoms: _114  and  _115
REMARK   53  A    between atoms: _115  and  _116
REMARK   54  A    between atoms: _125  and  _127
REMARK   55  A    between atoms: _127  and  _128
REMARK   56  A    between atoms: _127  and  _130
REMARK   57  A    between atoms: _130  and  _131
REMARK   58  A    between atoms: _131  and  _132
REMARK   59  A    between atoms: _137  and  _139
REMARK   60  A    between atoms: _139  and  _140
REMARK   61  A    between atoms: _139  and  _142
REMARK   62  A    between atoms: _142  and  _143
REMARK   63  A    between atoms: _148  and  _149
REMARK   64  A    between atoms: _151  and  _153
REMARK   65  A    between atoms: _153  and  _154
REMARK   66  A    between atoms: _153  and  _156
REMARK   67  A    between atoms: _159  and  _161
REMARK   68  A    between atoms: _161  and  _162
REMARK   69  A    between atoms: _165  and  _166
REMARK                            x       y       z     vdW  Elec       q    Type
REMARK                         _______ _______ _______ _____ _____    ______ ____
ROOT
ATOM      1  O   HOH     1     -11.139  24.316 -26.520  0.00  0.00    +0.000 OA
ENDROOT
TORSDOF 0
REMARK  Name = ../refined-set-2016/4ejl/4ejl_pocket.pdb
REMARK  69 active torsions:
REMARK  status: ('A' for Active; 'I' for Inactive)
REMARK    1  A    between atoms: _1  and  _3
REMARK    2  A    between atoms: _3  and  _4
REMARK    3  A    between atoms: _3  and  _6
REMARK    4  A    between atoms: _6  and  _7
REMARK    5  A    between atoms: _7  and  _8
REMARK    6  A    between atoms: _11  and  _13
REMARK    7  A    between atoms: _13  and  _14
REMARK    8  A    between atoms: _13  and  _16
REMARK    9  A    between atoms: _16  and  _17
REMARK   10  A    between atoms: _27  and  _29
REMARK   11  A    between atoms: _29  and  _30
REMARK   12  A    between atoms: _29  and  _32
REMARK   13  A    between atoms: _32  and  _33
REMARK   14  A    between atoms: _33  and  _34
REMARK   15  A    between atoms: _34  and  _35
REMARK   16  A    between atoms: _35  and  _36
REMARK   17  A    between atoms: _41  and  _42
REMARK   18  A    between atoms: _47  and  _49
REMARK   19  A    between atoms: _49  and  _50
REMARK   20  A    between atoms: _49  and  _52
REMARK   21  A    between atoms: _52  and  _53
REMARK   22  A    between atoms: _53  and  _54
REMARK   23  A    between atoms: _54  and  _55
REMARK   24  A    between atoms: _55  and  _56
REMARK   25  A    between atoms: _60  and  _62
REMARK   26  A    between atoms: _62  and  _63
REMARK   27  A    between atoms: _62  and  _65
REMARK   28  A    between atoms: _65  and  _66
REMARK   29  A    between atoms: _66  and  _67
REMARK   30  A    between atoms: _69  and  _71
REMARK   31  A    between atoms: _71  and  _72
REMARK   32  A    between atoms: _71  and  _74
REMARK   33  A    between atoms: _74  and  _75
REMARK   34  A    between atoms: _78  and  _80
REMARK   35  A    between atoms: _80  and  _81
REMARK   36  A    between atoms: _80  and  _83
REMARK   37  A    between atoms: _83  and  _84
REMARK   38  A    between atoms: _87  and  _89
REMARK   39  A    between atoms: _89  and  _90
REMARK   40  A    between atoms: _89  and  _92
REMARK   41  A    between atoms: _92  and  _93
REMARK   42  A    between atoms: _93  and  _94
REMARK   43  A    between atoms: _94  and  _95
REMARK   44  A    between atoms: _95  and  _96
REMARK   45  A    between atoms: _100  and  _102
REMARK   46  A    between atoms: _102  and  _103
REMARK   47  A    between atoms: _102  and  _105
REMARK   48  A    between atoms: _108  and  _110
REMARK   49  A    between atoms: _110  and  _111
REMARK   50  A    between atoms: _110  and  _113
REMARK   51  A    between atoms: _113  and  _114
REMARK   52  A    between atoms: _114  and  _115
REMARK   53  A    between atoms: _115  and  _116
REMARK   54  A    between atoms: _125  and  _127
REMARK   55  A    between atoms: _127  and  _128
REMARK   56  A    between atoms: _127  and  _130
REMARK   57  A    between atoms: _130  and  _131
REMARK   58  A    between atoms: _131  and  _132
REMARK   59  A    between atoms: _137  and  _139
REMARK   60  A    between atoms: _139  and  _140
REMARK   61  A    between atoms: _139  and  _142
REMARK   62  A    between atoms: _142  and  _143
REMARK   63  A    between atoms: _148  and  _149
REMARK   64  A    between atoms: _151  and  _153
REMARK   65  A    between atoms: _153  and  _154
REMARK   66  A    between atoms: _153  and  _156
REMARK   67  A    between atoms: _159  and  _161
REMARK   68  A    between atoms: _161  and  _162
REMARK   69  A    between atoms: _165  and  _166
REMARK                            x       y       z     vdW  Elec       q    Type
REMARK                         _______ _______ _______ _____ _____    ______ ____
ROOT
ATOM      1  O   HOH     1      -8.754  18.843 -21.111  0.00  0.00    +0.000 OA
ENDROOT
TORSDOF 0
REMARK  Name = ../refined-set-2016/4ejl/4ejl_pocket.pdb
REMARK  69 active torsions:
REMARK  status: ('A' for Active; 'I' for Inactive)
REMARK    1  A    between atoms: _1  and  _3
REMARK    2  A    between atoms: _3  and  _4
REMARK    3  A    between atoms: _3  and  _6
REMARK    4  A    between atoms: _6  and  _7
REMARK    5  A    between atoms: _7  and  _8
REMARK    6  A    between atoms: _11  and  _13
REMARK    7  A    between atoms: _13  and  _14
REMARK    8  A    between atoms: _13  and  _16
REMARK    9  A    between atoms: _16  and  _17
REMARK   10  A    between atoms: _27  and  _29
REMARK   11  A    between atoms: _29  and  _30
REMARK   12  A    between atoms: _29  and  _32
REMARK   13  A    between atoms: _32  and  _33
REMARK   14  A    between atoms: _33  and  _34
REMARK   15  A    between atoms: _34  and  _35
REMARK   16  A    between atoms: _35  and  _36
REMARK   17  A    between atoms: _41  and  _42
REMARK   18  A    between atoms: _47  and  _49
REMARK   19  A    between atoms: _49  and  _50
REMARK   20  A    between atoms: _49  and  _52
REMARK   21  A    between atoms: _52  and  _53
REMARK   22  A    between atoms: _53  and  _54
REMARK   23  A    between atoms: _54  and  _55
REMARK   24  A    between atoms: _55  and  _56
REMARK   25  A    between atoms: _60  and  _62
REMARK   26  A    between atoms: _62  and  _63
REMARK   27  A    between atoms: _62  and  _65
REMARK   28  A    between atoms: _65  and  _66
REMARK   29  A    between atoms: _66  and  _67
REMARK   30  A    between atoms: _69  and  _71
REMARK   31  A    between atoms: _71  and  _72
REMARK   32  A    between atoms: _71  and  _74
REMARK   33  A    between atoms: _74  and  _75
REMARK   34  A    between atoms: _78  and  _80
REMARK   35  A    between atoms: _80  and  _81
REMARK   36  A    between atoms: _80  and  _83
REMARK   37  A    between atoms: _83  and  _84
REMARK   38  A    between atoms: _87  and  _89
REMARK   39  A    between atoms: _89  and  _90
REMARK   40  A    between atoms: _89  and  _92
REMARK   41  A    between atoms: _92  and  _93
REMARK   42  A    between atoms: _93  and  _94
REMARK   43  A    between atoms: _94  and  _95
REMARK   44  A    between atoms: _95  and  _96
REMARK   45  A    between atoms: _100  and  _102
REMARK   46  A    between atoms: _102  and  _103
REMARK   47  A    between atoms: _102  and  _105
REMARK   48  A    between atoms: _108  and  _110
REMARK   49  A    between atoms: _110  and  _111
REMARK   50  A    between atoms: _110  and  _113
REMARK   51  A    between atoms: _113  and  _114
REMARK   52  A    between atoms: _114  and  _115
REMARK   53  A    between atoms: _115  and  _116
REMARK   54  A    between atoms: _125  and  _127
REMARK   55  A    between atoms: _127  and  _128
REMARK   56  A    between atoms: _127  and  _130
REMARK   57  A    between atoms: _130  and  _131
REMARK   58  A    between atoms: _131  and  _132
REMARK   59  A    between atoms: _137  and  _139
REMARK   60  A    between atoms: _139  and  _140
REMARK   61  A    between atoms: _139  and  _142
REMARK   62  A    between atoms: _142  and  _143
REMARK   63  A    between atoms: _148  and  _149
REMARK   64  A    between atoms: _151  and  _153
REMARK   65  A    between atoms: _153  and  _154
REMARK   66  A    between atoms: _153  and  _156
REMARK   67  A    between atoms: _159  and  _161
REMARK   68  A    between atoms: _161  and  _162
REMARK   69  A    between atoms: _165  and  _166
REMARK                            x       y       z     vdW  Elec       q    Type
REMARK                         _______ _______ _______ _____ _____    ______ ____
ROOT
ATOM      1  O   HOH     1     -20.241  16.517 -20.944  0.00  0.00    +0.000 OA
ENDROOT
TORSDOF 0
