REMARK  Name = ../refined-set-2016/4qyy/4qyy_pocket.pdb
REMARK  242 active torsions:
REMARK  status: ('A' for Active; 'I' for Inactive)
REMARK    1  A    between atoms: _1  and  _3
REMARK    2  A    between atoms: _3  and  _4
REMARK    3  A    between atoms: _3  and  _6
REMARK    4  A    between atoms: _6  and  _7
REMARK    5  A    between atoms: _10  and  _12
REMARK    6  A    between atoms: _12  and  _13
REMARK    7  A    between atoms: _15  and  _17
REMARK    8  A    between atoms: _17  and  _18
REMARK    9  A    between atoms: _17  and  _20
REMARK   10  A    between atoms: _20  and  _21
REMARK   11  A    between atoms: _21  and  _22
REMARK   12  A    between atoms: _25  and  _27
REMARK   13  A    between atoms: _27  and  _28
REMARK   14  A    between atoms: _30  and  _32
REMARK   15  A    between atoms: _32  and  _33
REMARK   16  A    between atoms: _36  and  _38
REMARK   17  A    between atoms: _38  and  _39
REMARK   18  A    between atoms: _38  and  _41
REMARK   19  A    between atoms: _41  and  _42
REMARK   20  A    between atoms: _47  and  _48
REMARK   21  A    between atoms: _50  and  _52
REMARK   22  A    between atoms: _52  and  _53
REMARK   23  A    between atoms: _55  and  _57
REMARK   24  A    between atoms: _57  and  _58
REMARK   25  A    between atoms: _57  and  _60
REMARK   26  A    between atoms: _60  and  _61
REMARK   27  A    between atoms: _61  and  _62
REMARK   28  A    between atoms: _64  and  _66
REMARK   29  A    between atoms: _66  and  _67
REMARK   30  A    between atoms: _66  and  _69
REMARK   31  A    between atoms: _72  and  _74
REMARK   32  A    between atoms: _74  and  _75
REMARK   33  A    between atoms: _74  and  _77
REMARK   34  A    between atoms: _79  and  _81
REMARK   35  A    between atoms: _81  and  _82
REMARK   36  A    between atoms: _81  and  _84
REMARK   37  A    between atoms: _84  and  _85
REMARK   38  A    between atoms: _87  and  _89
REMARK   39  A    between atoms: _89  and  _90
REMARK   40  A    between atoms: _89  and  _92
REMARK   41  A    between atoms: _92  and  _93
REMARK   42  A    between atoms: _93  and  _94
REMARK   43  A    between atoms: _94  and  _95
REMARK   44  A    between atoms: _104  and  _106
REMARK   45  A    between atoms: _106  and  _107
REMARK   46  A    between atoms: _106  and  _109
REMARK   47  A    between atoms: _112  and  _114
REMARK   48  A    between atoms: _114  and  _115
REMARK   49  A    between atoms: _118  and  _120
REMARK   50  A    between atoms: _120  and  _121
REMARK   51  A    between atoms: _120  and  _123
REMARK   52  A    between atoms: _123  and  _124
REMARK   53  A    between atoms: _127  and  _129
REMARK   54  A    between atoms: _129  and  _130
REMARK   55  A    between atoms: _129  and  _132
REMARK   56  A    between atoms: _132  and  _133
REMARK   57  A    between atoms: _133  and  _134
REMARK   58  A    between atoms: _134  and  _135
REMARK   59  A    between atoms: _135  and  _136
REMARK   60  A    between atoms: _140  and  _142
REMARK   61  A    between atoms: _142  and  _143
REMARK   62  A    between atoms: _142  and  _145
REMARK   63  A    between atoms: _145  and  _146
REMARK   64  A    between atoms: _146  and  _147
REMARK   65  A    between atoms: _147  and  _148
REMARK   66  A    between atoms: _148  and  _149
REMARK   67  A    between atoms: _153  and  _155
REMARK   68  A    between atoms: _155  and  _156
REMARK   69  A    between atoms: _155  and  _158
REMARK   70  A    between atoms: _158  and  _159
REMARK   71  A    between atoms: _162  and  _164
REMARK   72  A    between atoms: _164  and  _165
REMARK   73  A    between atoms: _164  and  _167
REMARK   74  A    between atoms: _167  and  _168
REMARK   75  A    between atoms: _171  and  _172
REMARK   76  A    between atoms: _177  and  _179
REMARK   77  A    between atoms: _179  and  _180
REMARK   78  A    between atoms: _179  and  _182
REMARK   79  A    between atoms: _182  and  _183
REMARK   80  A    between atoms: _189  and  _191
REMARK   81  A    between atoms: _191  and  _192
REMARK   82  A    between atoms: _191  and  _194
REMARK   83  A    between atoms: _194  and  _195
REMARK   84  A    between atoms: _195  and  _196
REMARK   85  A    between atoms: _199  and  _201
REMARK   86  A    between atoms: _201  and  _202
REMARK   87  A    between atoms: _201  and  _204
REMARK   88  A    between atoms: _204  and  _205
REMARK   89  A    between atoms: _210  and  _212
REMARK   90  A    between atoms: _212  and  _213
REMARK   91  A    between atoms: _212  and  _215
REMARK   92  A    between atoms: _215  and  _216
REMARK   93  A    between atoms: _219  and  _221
REMARK   94  A    between atoms: _221  and  _222
REMARK   95  A    between atoms: _221  and  _224
REMARK   96  A    between atoms: _224  and  _225
REMARK   97  A    between atoms: _230  and  _231
REMARK   98  A    between atoms: _233  and  _235
REMARK   99  A    between atoms: _235  and  _236
REMARK  100  A    between atoms: _235  and  _238
REMARK  101  A    between atoms: _240  and  _242
REMARK  102  A    between atoms: _242  and  _243
REMARK  103  A    between atoms: _242  and  _245
REMARK  104  A    between atoms: _245  and  _246
REMARK  105  A    between atoms: _246  and  _247
REMARK  106  A    between atoms: _252  and  _254
REMARK  107  A    between atoms: _254  and  _255
REMARK  108  A    between atoms: _254  and  _257
REMARK  109  A    between atoms: _257  and  _258
REMARK  110  A    between atoms: _258  and  _259
REMARK  111  A    between atoms: _259  and  _260
REMARK  112  A    between atoms: _269  and  _271
REMARK  113  A    between atoms: _271  and  _272
REMARK  114  A    between atoms: _271  and  _274
REMARK  115  A    between atoms: _274  and  _275
REMARK  116  A    between atoms: _278  and  _280
REMARK  117  A    between atoms: _280  and  _281
REMARK  118  A    between atoms: _280  and  _283
REMARK  119  A    between atoms: _283  and  _284
REMARK  120  A    between atoms: _287  and  _289
REMARK  121  A    between atoms: _289  and  _290
REMARK  122  A    between atoms: _289  and  _292
REMARK  123  A    between atoms: _292  and  _293
REMARK  124  A    between atoms: _293  and  _294
REMARK  125  A    between atoms: _294  and  _295
REMARK  126  A    between atoms: _304  and  _306
REMARK  127  A    between atoms: _306  and  _307
REMARK  128  A    between atoms: _306  and  _309
REMARK  129  A    between atoms: _309  and  _310
REMARK  130  A    between atoms: _310  and  _311
REMARK  131  A    between atoms: _314  and  _316
REMARK  132  A    between atoms: _316  and  _317
REMARK  133  A    between atoms: _316  and  _319
REMARK  134  A    between atoms: _319  and  _320
REMARK  135  A    between atoms: _323  and  _325
REMARK  136  A    between atoms: _325  and  _326
REMARK  137  A    between atoms: _325  and  _328
REMARK  138  A    between atoms: _328  and  _329
REMARK  139  A    between atoms: _332  and  _334
REMARK  140  A    between atoms: _334  and  _335
REMARK  141  A    between atoms: _334  and  _337
REMARK  142  A    between atoms: _337  and  _338
REMARK  143  A    between atoms: _341  and  _343
REMARK  144  A    between atoms: _343  and  _344
REMARK  145  A    between atoms: _346  and  _348
REMARK  146  A    between atoms: _348  and  _349
REMARK  147  A    between atoms: _348  and  _351
REMARK  148  A    between atoms: _351  and  _352
REMARK  149  A    between atoms: _355  and  _357
REMARK  150  A    between atoms: _357  and  _358
REMARK  151  A    between atoms: _357  and  _360
REMARK  152  A    between atoms: _363  and  _365
REMARK  153  A    between atoms: _365  and  _366
REMARK  154  A    between atoms: _365  and  _368
REMARK  155  A    between atoms: _368  and  _369
REMARK  156  A    between atoms: _372  and  _374
REMARK  157  A    between atoms: _374  and  _375
REMARK  158  A    between atoms: _374  and  _377
REMARK  159  A    between atoms: _380  and  _382
REMARK  160  A    between atoms: _382  and  _383
REMARK  161  A    between atoms: _382  and  _385
REMARK  162  A    between atoms: _385  and  _386
REMARK  163  A    between atoms: _386  and  _387
REMARK  164  A    between atoms: _392  and  _394
REMARK  165  A    between atoms: _394  and  _395
REMARK  166  A    between atoms: _394  and  _397
REMARK  167  A    between atoms: _397  and  _398
REMARK  168  A    between atoms: _401  and  _403
REMARK  169  A    between atoms: _403  and  _404
REMARK  170  A    between atoms: _403  and  _406
REMARK  171  A    between atoms: _406  and  _407
REMARK  172  A    between atoms: _410  and  _412
REMARK  173  A    between atoms: _412  and  _413
REMARK  174  A    between atoms: _412  and  _415
REMARK  175  A    between atoms: _415  and  _416
REMARK  176  A    between atoms: _416  and  _417
REMARK  177  A    between atoms: _419  and  _421
REMARK  178  A    between atoms: _421  and  _422
REMARK  179  A    between atoms: _421  and  _424
REMARK  180  A    between atoms: _424  and  _425
REMARK  181  A    between atoms: _425  and  _426
REMARK  182  A    between atoms: _429  and  _431
REMARK  183  A    between atoms: _431  and  _432
REMARK  184  A    between atoms: _431  and  _434
REMARK  185  A    between atoms: _434  and  _435
REMARK  186  A    between atoms: _438  and  _440
REMARK  187  A    between atoms: _440  and  _441
REMARK  188  A    between atoms: _440  and  _443
REMARK  189  A    between atoms: _443  and  _444
REMARK  190  A    between atoms: _447  and  _449
REMARK  191  A    between atoms: _449  and  _450
REMARK  192  A    between atoms: _449  and  _452
REMARK  193  A    between atoms: _452  and  _453
REMARK  194  A    between atoms: _453  and  _454
REMARK  195  A    between atoms: _454  and  _455
REMARK  196  A    between atoms: _455  and  _456
REMARK  197  A    between atoms: _460  and  _462
REMARK  198  A    between atoms: _462  and  _463
REMARK  199  A    between atoms: _462  and  _465
REMARK  200  A    between atoms: _465  and  _466
REMARK  201  A    between atoms: _468  and  _470
REMARK  202  A    between atoms: _470  and  _471
REMARK  203  A    between atoms: _470  and  _473
REMARK  204  A    between atoms: _473  and  _474
REMARK  205  A    between atoms: _479  and  _481
REMARK  206  A    between atoms: _481  and  _482
REMARK  207  A    between atoms: _481  and  _484
REMARK  208  A    between atoms: _484  and  _485
REMARK  209  A    between atoms: _488  and  _490
REMARK  210  A    between atoms: _490  and  _491
REMARK  211  A    between atoms: _490  and  _493
REMARK  212  A    between atoms: _493  and  _494
REMARK  213  A    between atoms: _497  and  _499
REMARK  214  A    between atoms: _499  and  _500
REMARK  215  A    between atoms: _499  and  _502
REMARK  216  A    between atoms: _502  and  _503
REMARK  217  A    between atoms: _503  and  _504
REMARK  218  A    between atoms: _504  and  _505
REMARK  219  A    between atoms: _505  and  _506
REMARK  220  A    between atoms: _510  and  _512
REMARK  221  A    between atoms: _512  and  _513
REMARK  222  A    between atoms: _512  and  _515
REMARK  223  A    between atoms: _515  and  _516
REMARK  224  A    between atoms: _519  and  _521
REMARK  225  A    between atoms: _521  and  _522
REMARK  226  A    between atoms: _521  and  _524
REMARK  227  A    between atoms: _526  and  _528
REMARK  228  A    between atoms: _528  and  _529
REMARK  229  A    between atoms: _528  and  _531
REMARK  230  A    between atoms: _531  and  _532
REMARK  231  A    between atoms: _535  and  _537
REMARK  232  A    between atoms: _537  and  _538
REMARK  233  A    between atoms: _537  and  _540
REMARK  234  A    between atoms: _540  and  _541
REMARK  235  A    between atoms: _547  and  _549
REMARK  236  A    between atoms: _549  and  _550
REMARK  237  A    between atoms: _552  and  _554
REMARK  238  A    between atoms: _554  and  _555
REMARK  239  A    between atoms: _554  and  _557
REMARK  240  A    between atoms: _557  and  _558
REMARK  241  A    between atoms: _561  and  _563
REMARK  242  A    between atoms: _563  and  _564
REMARK                            x       y       z     vdW  Elec       q    Type
REMARK                         _______ _______ _______ _____ _____    ______ ____
ROOT
ATOM      1  CA  TYR A   6      43.447  21.374   8.065  0.00  0.00    +0.153 C 
ENDROOT
BRANCH   1   3
ATOM      2  C   ALA A   5      41.226  21.787   9.132  0.00  0.00    +0.241 C 
ATOM      3  N   TYR A   6      42.441  21.211   9.137  0.00  0.00    -0.297 N 
ATOM      4  H   TYR A   6      42.690  20.611   9.949  0.00  0.00    +0.150 HD
ATOM      5  O   ALA A   5      40.820  22.498   8.212  0.00  0.00    -0.273 OA
BRANCH   2   6
ATOM      6  CA  ALA A   5      40.296  21.447  10.335  0.00  0.00    +0.149 C 
ATOM      7  CB  ALA A   5      40.751  22.188  11.594  0.00  0.00    +0.031 C 
BRANCH   6   9
ATOM      8  C   GLY A   4      40.000  19.087   9.647  0.00  0.00    +0.243 C 
ATOM      9  N   ALA A   5      40.310  19.996  10.576  0.00  0.00    -0.297 N 
ATOM     10  H   ALA A   5      40.576  19.659  11.523  0.00  0.00    +0.150 HD
ATOM     11  O   GLY A   4      39.692  19.370   8.486  0.00  0.00    -0.273 OA
BRANCH   8  12
ATOM     12  CA  GLY A   4      40.080  17.631  10.074  0.00  0.00    +0.176 C 
BRANCH  12  15
ATOM     13  C   GLU A   3      39.908  15.449   9.011  0.00  0.00    +0.241 C 
ATOM     14  O   GLU A   3      39.729  14.875  10.088  0.00  0.00    -0.273 OA
ATOM     15  N   GLY A   4      40.092  16.760   8.908  0.00  0.00    -0.295 N 
ATOM     16  H   GLY A   4      40.249  17.176   7.968  0.00  0.00    +0.150 HD
BRANCH  13  17
ATOM     17  CA  GLU A   3      39.950  14.668   7.724  0.00  0.00    +0.149 C 
BRANCH  17  19
ATOM     18  C   GLY A   2      40.570  12.380   7.113  0.00  0.00    +0.243 C 
ATOM     19  N   GLU A   3      40.091  13.240   8.004  0.00  0.00    -0.297 N 
ATOM     20  H   GLU A   3      39.805  12.884   8.938  0.00  0.00    +0.150 HD
ATOM     21  O   GLY A   2      40.903  12.709   5.976  0.00  0.00    -0.273 OA
BRANCH  18  22
ATOM     22  CA  GLY A   2      40.677  10.930   7.567  0.00  0.00    +0.176 C 
BRANCH  22  25
ATOM     23  C   ILE A   1      41.473   8.782   6.709  0.00  0.00    +0.238 C 
ATOM     24  O   ILE A   1      40.942   8.155   7.627  0.00  0.00    -0.274 OA
ATOM     25  N   GLY A   2      41.421  10.114   6.612  0.00  0.00    -0.296 N 
ATOM     26  H   GLY A   2      41.926  10.583   5.833  0.00  0.00    +0.150 HD
BRANCH  23  27
ATOM     27  CA  ILE A   1      42.309   8.055   5.663  0.00  0.00    +0.145 C 
BRANCH  27  28
ATOM     28  CB  ILE A   1      43.819   8.415   5.790  0.00  0.00    +0.025 C 
ATOM     29  CG2 ILE A   1      44.305   8.236   7.237  0.00  0.00    +0.002 C 
BRANCH  28  30
ATOM     30  CG1 ILE A   1      44.653   7.555   4.815  0.00  0.00    +0.002 C 
ATOM     31  CD1 ILE A   1      46.156   7.793   4.847  0.00  0.00    +0.000 C 
ENDBRANCH  28  30
ENDBRANCH  27  28
BRANCH  27  32
ATOM     32  N   ILE A   1      41.786   8.403   4.343  0.00  0.00    -0.238 NA
ATOM     33  H   ILE A   1      42.052   9.323   3.938  0.00  0.00    +0.142 HD
ENDBRANCH  27  32
ENDBRANCH  23  27
ENDBRANCH  22  25
ENDBRANCH  18  22
ENDBRANCH  17  19
BRANCH  17  34
ATOM     34  CB  GLU A   3      38.713  14.957   6.844  0.00  0.00    +0.041 C 
BRANCH  34  35
ATOM     35  CG  GLU A   3      37.377  14.916   7.562  0.00  0.00    +0.116 C 
BRANCH  35  36
ATOM     36  CD  GLU A   3      36.200  14.859   6.609  0.00  0.00    +0.365 C 
ATOM     37  OE2 GLU A   3      35.565  15.914   6.382  0.00  0.00    -0.246 OA
ATOM     38  OE1 GLU A   3      35.940  13.769   6.054  0.00  0.00    -0.246 OA
ENDBRANCH  35  36
ENDBRANCH  34  35
ENDBRANCH  17  34
ENDBRANCH  13  17
ENDBRANCH  12  15
ENDBRANCH   8  12
ENDBRANCH   6   9
ENDBRANCH   2   6
ENDBRANCH   1   3
BRANCH   1  39
ATOM     39  C   TYR A   6      42.975  21.030   6.647  0.00  0.00    +0.241 C 
ATOM     40  N   GLY A   7      42.080  20.030   6.505  0.00  0.00    -0.295 N 
ATOM     41  H   GLY A   7      41.690  19.591   7.364  0.00  0.00    +0.150 HD
ATOM     42  O   TYR A   6      43.483  21.612   5.690  0.00  0.00    -0.273 OA
BRANCH  40  43
ATOM     43  CA  GLY A   7      41.632  19.534   5.213  0.00  0.00    +0.176 C 
BRANCH  43  44
ATOM     44  C   GLY A   7      41.429  18.016   5.269  0.00  0.00    +0.243 C 
ATOM     45  O   GLY A   7      40.874  17.521   6.247  0.00  0.00    -0.273 OA
ATOM     46  N   MET A   8      41.888  17.289   4.241  0.00  0.00    -0.297 N 
ATOM     47  H   MET A   8      42.403  17.785   3.486  0.00  0.00    +0.150 HD
BRANCH  46  48
ATOM     48  CA  MET A   8      41.711  15.844   4.113  0.00  0.00    +0.149 C 
BRANCH  48  49
ATOM     49  C   MET A   8      43.017  15.156   3.755  0.00  0.00    +0.241 C 
ATOM     50  N   VAL A   9      43.219  13.907   4.229  0.00  0.00    -0.297 N 
ATOM     51  H   VAL A   9      42.492  13.499   4.851  0.00  0.00    +0.150 HD
ATOM     52  O   MET A   8      43.799  15.733   3.017  0.00  0.00    -0.273 OA
BRANCH  50  53
ATOM     53  CA  VAL A   9      44.401  13.086   3.923  0.00  0.00    +0.149 C 
BRANCH  53  54
ATOM     54  C   VAL A   9      43.961  11.757   3.314  0.00  0.00    +0.241 C 
ATOM     55  O   VAL A   9      43.013  11.146   3.806  0.00  0.00    -0.273 OA
ATOM     56  N   CYS A  10      44.661  11.326   2.249  0.00  0.00    -0.296 N 
ATOM     57  H   CYS A  10      45.396  11.959   1.875  0.00  0.00    +0.150 HD
BRANCH  56  58
ATOM     58  CA  CYS A  10      44.476  10.044   1.573  0.00  0.00    +0.160 C 
BRANCH  58  59
ATOM     59  C   CYS A  10      45.819   9.350   1.525  0.00  0.00    +0.242 C 
ATOM     60  O   CYS A  10      46.853   9.994   1.709  0.00  0.00    -0.273 OA
ATOM     61  N   SER A  11      45.803   8.062   1.158  0.00  0.00    -0.296 N 
ATOM     62  H   SER A  11      44.881   7.586   1.085  0.00  0.00    +0.150 HD
BRANCH  61  63
ATOM     63  CA  SER A  11      47.001   7.286   0.855  0.00  0.00    +0.166 C 
BRANCH  63  64
ATOM     64  C   SER A  11      47.074   7.260  -0.682  0.00  0.00    +0.229 C 
ATOM     65  O   SER A  11      46.028   7.359  -1.321  0.00  0.00    -0.286 OA
ENDBRANCH  63  64
BRANCH  63  66
ATOM     66  CB  SER A  11      46.912   5.863   1.407  0.00  0.00    +0.165 C 
BRANCH  66  67
ATOM     67  OG  SER A  11      45.594   5.341   1.403  0.00  0.00    -0.380 OA
ATOM     68  H   SER A  11      45.603   4.422   1.770  0.00  0.00    +0.211 HD
ENDBRANCH  66  67
ENDBRANCH  63  66
ENDBRANCH  61  63
ENDBRANCH  58  59
BRANCH  58  69
ATOM     69  CB  CYS A  10      43.969  10.255   0.151  0.00  0.00    +0.098 C 
ATOM     70  SG  CYS A  10      42.356  11.065   0.031  0.00  0.00    -0.080 S 
ENDBRANCH  58  69
ENDBRANCH  56  58
ENDBRANCH  53  54
BRANCH  53  71
ATOM     71  CB  VAL A   9      45.296  12.823   5.161  0.00  0.00    +0.027 C 
ATOM     72  CG2 VAL A   9      45.434  14.068   5.984  0.00  0.00    +0.002 C 
ATOM     73  CG1 VAL A   9      46.679  12.314   4.758  0.00  0.00    +0.002 C 
ENDBRANCH  53  71
ENDBRANCH  50  53
ENDBRANCH  48  49
BRANCH  48  74
ATOM     74  CB  MET A   8      40.692  15.592   2.989  0.00  0.00    +0.041 C 
BRANCH  74  75
ATOM     75  CG  MET A   8      40.363  14.129   2.789  0.00  0.00    +0.060 C 
BRANCH  75  76
ATOM     76  SD  MET A   8      38.915  13.816   1.762  0.00  0.00    -0.139 S 
ATOM     77  CE  MET A   8      39.194  14.931   0.416  0.00  0.00    +0.069 C 
ENDBRANCH  75  76
ENDBRANCH  74  75
ENDBRANCH  48  74
ENDBRANCH  46  48
ENDBRANCH  43  44
ENDBRANCH  40  43
ENDBRANCH   1  39
BRANCH   1  78
ATOM     78  CB  TYR A   6      44.688  20.518   8.364  0.00  0.00    +0.055 C 
BRANCH  78  79
ATOM     79  CG  TYR A   6      44.397  19.034   8.325  0.00  0.00    -0.020 A 
ATOM     80  CD2 TYR A   6      43.962  18.359   9.458  0.00  0.00    -0.001 A 
ATOM     81  CE2 TYR A   6      43.649  17.006   9.419  0.00  0.00    +0.036 A 
ATOM     82  CZ  TYR A   6      43.735  16.316   8.225  0.00  0.00    +0.134 A 
ATOM     83  CE1 TYR A   6      44.156  16.970   7.081  0.00  0.00    +0.036 A 
ATOM     84  CD1 TYR A   6      44.494  18.317   7.140  0.00  0.00    -0.001 A 
BRANCH  82  85
ATOM     85  OH  TYR A   6      43.394  14.985   8.180  0.00  0.00    -0.506 OA
ATOM     86  HH  TYR A   6      43.119  14.685   9.083  0.00  0.00    +0.292 HD
ENDBRANCH  82  85
ENDBRANCH  78  79
ENDBRANCH   1  78
TORSDOF 37
REMARK  Name = ../refined-set-2016/4qyy/4qyy_pocket.pdb
REMARK  242 active torsions:
REMARK  status: ('A' for Active; 'I' for Inactive)
REMARK    1  A    between atoms: _1  and  _3
REMARK    2  A    between atoms: _3  and  _4
REMARK    3  A    between atoms: _3  and  _6
REMARK    4  A    between atoms: _6  and  _7
REMARK    5  A    between atoms: _10  and  _12
REMARK    6  A    between atoms: _12  and  _13
REMARK    7  A    between atoms: _15  and  _17
REMARK    8  A    between atoms: _17  and  _18
REMARK    9  A    between atoms: _17  and  _20
REMARK   10  A    between atoms: _20  and  _21
REMARK   11  A    between atoms: _21  and  _22
REMARK   12  A    between atoms: _25  and  _27
REMARK   13  A    between atoms: _27  and  _28
REMARK   14  A    between atoms: _30  and  _32
REMARK   15  A    between atoms: _32  and  _33
REMARK   16  A    between atoms: _36  and  _38
REMARK   17  A    between atoms: _38  and  _39
REMARK   18  A    between atoms: _38  and  _41
REMARK   19  A    between atoms: _41  and  _42
REMARK   20  A    between atoms: _47  and  _48
REMARK   21  A    between atoms: _50  and  _52
REMARK   22  A    between atoms: _52  and  _53
REMARK   23  A    between atoms: _55  and  _57
REMARK   24  A    between atoms: _57  and  _58
REMARK   25  A    between atoms: _57  and  _60
REMARK   26  A    between atoms: _60  and  _61
REMARK   27  A    between atoms: _61  and  _62
REMARK   28  A    between atoms: _64  and  _66
REMARK   29  A    between atoms: _66  and  _67
REMARK   30  A    between atoms: _66  and  _69
REMARK   31  A    between atoms: _72  and  _74
REMARK   32  A    between atoms: _74  and  _75
REMARK   33  A    between atoms: _74  and  _77
REMARK   34  A    between atoms: _79  and  _81
REMARK   35  A    between atoms: _81  and  _82
REMARK   36  A    between atoms: _81  and  _84
REMARK   37  A    between atoms: _84  and  _85
REMARK   38  A    between atoms: _87  and  _89
REMARK   39  A    between atoms: _89  and  _90
REMARK   40  A    between atoms: _89  and  _92
REMARK   41  A    between atoms: _92  and  _93
REMARK   42  A    between atoms: _93  and  _94
REMARK   43  A    between atoms: _94  and  _95
REMARK   44  A    between atoms: _104  and  _106
REMARK   45  A    between atoms: _106  and  _107
REMARK   46  A    between atoms: _106  and  _109
REMARK   47  A    between atoms: _112  and  _114
REMARK   48  A    between atoms: _114  and  _115
REMARK   49  A    between atoms: _118  and  _120
REMARK   50  A    between atoms: _120  and  _121
REMARK   51  A    between atoms: _120  and  _123
REMARK   52  A    between atoms: _123  and  _124
REMARK   53  A    between atoms: _127  and  _129
REMARK   54  A    between atoms: _129  and  _130
REMARK   55  A    between atoms: _129  and  _132
REMARK   56  A    between atoms: _132  and  _133
REMARK   57  A    between atoms: _133  and  _134
REMARK   58  A    between atoms: _134  and  _135
REMARK   59  A    between atoms: _135  and  _136
REMARK   60  A    between atoms: _140  and  _142
REMARK   61  A    between atoms: _142  and  _143
REMARK   62  A    between atoms: _142  and  _145
REMARK   63  A    between atoms: _145  and  _146
REMARK   64  A    between atoms: _146  and  _147
REMARK   65  A    between atoms: _147  and  _148
REMARK   66  A    between atoms: _148  and  _149
REMARK   67  A    between atoms: _153  and  _155
REMARK   68  A    between atoms: _155  and  _156
REMARK   69  A    between atoms: _155  and  _158
REMARK   70  A    between atoms: _158  and  _159
REMARK   71  A    between atoms: _162  and  _164
REMARK   72  A    between atoms: _164  and  _165
REMARK   73  A    between atoms: _164  and  _167
REMARK   74  A    between atoms: _167  and  _168
REMARK   75  A    between atoms: _171  and  _172
REMARK   76  A    between atoms: _177  and  _179
REMARK   77  A    between atoms: _179  and  _180
REMARK   78  A    between atoms: _179  and  _182
REMARK   79  A    between atoms: _182  and  _183
REMARK   80  A    between atoms: _189  and  _191
REMARK   81  A    between atoms: _191  and  _192
REMARK   82  A    between atoms: _191  and  _194
REMARK   83  A    between atoms: _194  and  _195
REMARK   84  A    between atoms: _195  and  _196
REMARK   85  A    between atoms: _199  and  _201
REMARK   86  A    between atoms: _201  and  _202
REMARK   87  A    between atoms: _201  and  _204
REMARK   88  A    between atoms: _204  and  _205
REMARK   89  A    between atoms: _210  and  _212
REMARK   90  A    between atoms: _212  and  _213
REMARK   91  A    between atoms: _212  and  _215
REMARK   92  A    between atoms: _215  and  _216
REMARK   93  A    between atoms: _219  and  _221
REMARK   94  A    between atoms: _221  and  _222
REMARK   95  A    between atoms: _221  and  _224
REMARK   96  A    between atoms: _224  and  _225
REMARK   97  A    between atoms: _230  and  _231
REMARK   98  A    between atoms: _233  and  _235
REMARK   99  A    between atoms: _235  and  _236
REMARK  100  A    between atoms: _235  and  _238
REMARK  101  A    between atoms: _240  and  _242
REMARK  102  A    between atoms: _242  and  _243
REMARK  103  A    between atoms: _242  and  _245
REMARK  104  A    between atoms: _245  and  _246
REMARK  105  A    between atoms: _246  and  _247
REMARK  106  A    between atoms: _252  and  _254
REMARK  107  A    between atoms: _254  and  _255
REMARK  108  A    between atoms: _254  and  _257
REMARK  109  A    between atoms: _257  and  _258
REMARK  110  A    between atoms: _258  and  _259
REMARK  111  A    between atoms: _259  and  _260
REMARK  112  A    between atoms: _269  and  _271
REMARK  113  A    between atoms: _271  and  _272
REMARK  114  A    between atoms: _271  and  _274
REMARK  115  A    between atoms: _274  and  _275
REMARK  116  A    between atoms: _278  and  _280
REMARK  117  A    between atoms: _280  and  _281
REMARK  118  A    between atoms: _280  and  _283
REMARK  119  A    between atoms: _283  and  _284
REMARK  120  A    between atoms: _287  and  _289
REMARK  121  A    between atoms: _289  and  _290
REMARK  122  A    between atoms: _289  and  _292
REMARK  123  A    between atoms: _292  and  _293
REMARK  124  A    between atoms: _293  and  _294
REMARK  125  A    between atoms: _294  and  _295
REMARK  126  A    between atoms: _304  and  _306
REMARK  127  A    between atoms: _306  and  _307
REMARK  128  A    between atoms: _306  and  _309
REMARK  129  A    between atoms: _309  and  _310
REMARK  130  A    between atoms: _310  and  _311
REMARK  131  A    between atoms: _314  and  _316
REMARK  132  A    between atoms: _316  and  _317
REMARK  133  A    between atoms: _316  and  _319
REMARK  134  A    between atoms: _319  and  _320
REMARK  135  A    between atoms: _323  and  _325
REMARK  136  A    between atoms: _325  and  _326
REMARK  137  A    between atoms: _325  and  _328
REMARK  138  A    between atoms: _328  and  _329
REMARK  139  A    between atoms: _332  and  _334
REMARK  140  A    between atoms: _334  and  _335
REMARK  141  A    between atoms: _334  and  _337
REMARK  142  A    between atoms: _337  and  _338
REMARK  143  A    between atoms: _341  and  _343
REMARK  144  A    between atoms: _343  and  _344
REMARK  145  A    between atoms: _346  and  _348
REMARK  146  A    between atoms: _348  and  _349
REMARK  147  A    between atoms: _348  and  _351
REMARK  148  A    between atoms: _351  and  _352
REMARK  149  A    between atoms: _355  and  _357
REMARK  150  A    between atoms: _357  and  _358
REMARK  151  A    between atoms: _357  and  _360
REMARK  152  A    between atoms: _363  and  _365
REMARK  153  A    between atoms: _365  and  _366
REMARK  154  A    between atoms: _365  and  _368
REMARK  155  A    between atoms: _368  and  _369
REMARK  156  A    between atoms: _372  and  _374
REMARK  157  A    between atoms: _374  and  _375
REMARK  158  A    between atoms: _374  and  _377
REMARK  159  A    between atoms: _380  and  _382
REMARK  160  A    between atoms: _382  and  _383
REMARK  161  A    between atoms: _382  and  _385
REMARK  162  A    between atoms: _385  and  _386
REMARK  163  A    between atoms: _386  and  _387
REMARK  164  A    between atoms: _392  and  _394
REMARK  165  A    between atoms: _394  and  _395
REMARK  166  A    between atoms: _394  and  _397
REMARK  167  A    between atoms: _397  and  _398
REMARK  168  A    between atoms: _401  and  _403
REMARK  169  A    between atoms: _403  and  _404
REMARK  170  A    between atoms: _403  and  _406
REMARK  171  A    between atoms: _406  and  _407
REMARK  172  A    between atoms: _410  and  _412
REMARK  173  A    between atoms: _412  and  _413
REMARK  174  A    between atoms: _412  and  _415
REMARK  175  A    between atoms: _415  and  _416
REMARK  176  A    between atoms: _416  and  _417
REMARK  177  A    between atoms: _419  and  _421
REMARK  178  A    between atoms: _421  and  _422
REMARK  179  A    between atoms: _421  and  _424
REMARK  180  A    between atoms: _424  and  _425
REMARK  181  A    between atoms: _425  and  _426
REMARK  182  A    between atoms: _429  and  _431
REMARK  183  A    between atoms: _431  and  _432
REMARK  184  A    between atoms: _431  and  _434
REMARK  185  A    between atoms: _434  and  _435
REMARK  186  A    between atoms: _438  and  _440
REMARK  187  A    between atoms: _440  and  _441
REMARK  188  A    between atoms: _440  and  _443
REMARK  189  A    between atoms: _443  and  _444
REMARK  190  A    between atoms: _447  and  _449
REMARK  191  A    between atoms: _449  and  _450
REMARK  192  A    between atoms: _449  and  _452
REMARK  193  A    between atoms: _452  and  _453
REMARK  194  A    between atoms: _453  and  _454
REMARK  195  A    between atoms: _454  and  _455
REMARK  196  A    between atoms: _455  and  _456
REMARK  197  A    between atoms: _460  and  _462
REMARK  198  A    between atoms: _462  and  _463
REMARK  199  A    between atoms: _462  and  _465
REMARK  200  A    between atoms: _465  and  _466
REMARK  201  A    between atoms: _468  and  _470
REMARK  202  A    between atoms: _470  and  _471
REMARK  203  A    between atoms: _470  and  _473
REMARK  204  A    between atoms: _473  and  _474
REMARK  205  A    between atoms: _479  and  _481
REMARK  206  A    between atoms: _481  and  _482
REMARK  207  A    between atoms: _481  and  _484
REMARK  208  A    between atoms: _484  and  _485
REMARK  209  A    between atoms: _488  and  _490
REMARK  210  A    between atoms: _490  and  _491
REMARK  211  A    between atoms: _490  and  _493
REMARK  212  A    between atoms: _493  and  _494
REMARK  213  A    between atoms: _497  and  _499
REMARK  214  A    between atoms: _499  and  _500
REMARK  215  A    between atoms: _499  and  _502
REMARK  216  A    between atoms: _502  and  _503
REMARK  217  A    between atoms: _503  and  _504
REMARK  218  A    between atoms: _504  and  _505
REMARK  219  A    between atoms: _505  and  _506
REMARK  220  A    between atoms: _510  and  _512
REMARK  221  A    between atoms: _512  and  _513
REMARK  222  A    between atoms: _512  and  _515
REMARK  223  A    between atoms: _515  and  _516
REMARK  224  A    between atoms: _519  and  _521
REMARK  225  A    between atoms: _521  and  _522
REMARK  226  A    between atoms: _521  and  _524
REMARK  227  A    between atoms: _526  and  _528
REMARK  228  A    between atoms: _528  and  _529
REMARK  229  A    between atoms: _528  and  _531
REMARK  230  A    between atoms: _531  and  _532
REMARK  231  A    between atoms: _535  and  _537
REMARK  232  A    between atoms: _537  and  _538
REMARK  233  A    between atoms: _537  and  _540
REMARK  234  A    between atoms: _540  and  _541
REMARK  235  A    between atoms: _547  and  _549
REMARK  236  A    between atoms: _549  and  _550
REMARK  237  A    between atoms: _552  and  _554
REMARK  238  A    between atoms: _554  and  _555
REMARK  239  A    between atoms: _554  and  _557
REMARK  240  A    between atoms: _557  and  _558
REMARK  241  A    between atoms: _561  and  _563
REMARK  242  A    between atoms: _563  and  _564
REMARK                            x       y       z     vdW  Elec       q    Type
REMARK                         _______ _______ _______ _____ _____    ______ ____
ROOT
ATOM      1  CA  LYS A   6      44.993  18.605   0.602  0.00  0.00    +0.149 C 
ENDROOT
BRANCH   1   2
ATOM      2  C   LYS A   6      44.662  19.743   1.547  0.00  0.00    +0.241 C 
ATOM      3  O   LYS A   6      43.764  19.605   2.373  0.00  0.00    -0.273 OA
ATOM      4  N   ILE A   7      45.359  20.880   1.411  0.00  0.00    -0.297 N 
ATOM      5  H   ILE A   7      46.079  20.931   0.662  0.00  0.00    +0.150 HD
BRANCH   4   6
ATOM      6  CA  ILE A   7      45.159  22.048   2.260  0.00  0.00    +0.153 C 
BRANCH   6   7
ATOM      7  C   ILE A   7      44.602  23.160   1.379  0.00  0.00    +0.241 C 
ATOM      8  N   SER A   8      43.567  23.879   1.843  0.00  0.00    -0.295 N 
ATOM      9  H   SER A   8      43.196  23.652   2.788  0.00  0.00    +0.150 HD
ATOM     10  O   ILE A   7      45.151  23.393   0.311  0.00  0.00    -0.273 OA
BRANCH   8  11
ATOM     11  CA  SER A   8      42.927  24.973   1.088  0.00  0.00    +0.178 C 
BRANCH  11  12
ATOM     12  C   SER A   8      42.859  26.197   2.008  0.00  0.00    +0.246 C 
ATOM     13  O   SER A   8      41.790  26.550   2.521  0.00  0.00    -0.273 OA
ATOM     14  N   PRO A   9      44.010  26.854   2.233  0.00  0.00    -0.272 N 
ATOM     15  CA  PRO A   9      44.098  27.881   3.256  0.00  0.00    +0.152 C 
ATOM     16  CB  PRO A   9      45.496  27.610   3.804  0.00  0.00    +0.031 C 
ATOM     17  CG  PRO A   9      46.296  27.341   2.549  0.00  0.00    +0.024 C 
ATOM     18  CD  PRO A   9      45.339  26.642   1.609  0.00  0.00    +0.094 C 
BRANCH  15  19
ATOM     19  C   PRO A   9      44.038  29.340   2.861  0.00  0.00    +0.241 C 
ATOM     20  O   PRO A   9      44.093  30.184   3.744  0.00  0.00    -0.273 OA
ATOM     21  N   PHE A  10      43.960  29.663   1.584  0.00  0.00    -0.297 N 
ATOM     22  H   PHE A  10      43.714  28.939   0.879  0.00  0.00    +0.150 HD
BRANCH  21  23
ATOM     23  CA  PHE A  10      44.219  31.038   1.161  0.00  0.00    +0.153 C 
BRANCH  23  24
ATOM     24  C   PHE A  10      43.149  32.080   1.418  0.00  0.00    +0.241 C 
ATOM     25  N   GLU A  11      41.965  31.721   1.947  0.00  0.00    -0.297 N 
ATOM     26  H   GLU A  11      41.777  30.720   2.156  0.00  0.00    +0.150 HD
ATOM     27  O   PHE A  10      43.476  33.257   1.248  0.00  0.00    -0.273 OA
BRANCH  25  28
ATOM     28  CA  GLU A  11      40.941  32.724   2.230  0.00  0.00    +0.149 C 
BRANCH  28  29
ATOM     29  C   GLU A  11      41.169  33.415   3.571  0.00  0.00    +0.241 C 
ATOM     30  N   HIS A  12      42.061  32.876   4.451  0.00  0.00    -0.298 N 
ATOM     31  H   HIS A  12      42.598  32.026   4.184  0.00  0.00    +0.150 HD
ATOM     32  O   GLU A  11      40.528  34.435   3.831  0.00  0.00    -0.273 OA
BRANCH  30  33
ATOM     33  CA  HIS A  12      42.268  33.478   5.759  0.00  0.00    +0.143 C 
BRANCH  33  34
ATOM     34  C   HIS A  12      43.695  33.498   6.190  0.00  0.00    +0.227 C 
ATOM     35  O   HIS A  12      44.397  32.492   6.051  0.00  0.00    -0.286 OA
ENDBRANCH  33  34
BRANCH  33  36
ATOM     36  CB  HIS A  12      41.406  32.753   6.792  0.00  0.00    +0.075 C 
BRANCH  36  37
ATOM     37  CG  HIS A  12      39.952  33.005   6.569  0.00  0.00    +0.082 A 
ATOM     38  ND1 HIS A  12      39.418  34.273   6.705  0.00  0.00    -0.227 NA
ATOM     39  CE1 HIS A  12      38.151  34.173   6.346  0.00  0.00    +0.199 A 
ATOM     40  NE2 HIS A  12      37.844  32.924   5.993  0.00  0.00    -0.221 NA
ATOM     41  CD2 HIS A  12      38.998  32.181   6.082  0.00  0.00    +0.115 A 
ENDBRANCH  36  37
ENDBRANCH  33  36
ENDBRANCH  30  33
ENDBRANCH  28  29
BRANCH  28  42
ATOM     42  CB  GLU A  11      39.536  32.096   2.165  0.00  0.00    +0.041 C 
BRANCH  42  43
ATOM     43  CG  GLU A  11      39.227  31.392   0.853  0.00  0.00    +0.116 C 
BRANCH  43  44
ATOM     44  CD  GLU A  11      37.835  30.793   0.742  0.00  0.00    +0.365 C 
ATOM     45  OE2 GLU A  11      36.983  31.078   1.616  0.00  0.00    -0.246 OA
ATOM     46  OE1 GLU A  11      37.594  30.043  -0.231  0.00  0.00    -0.246 OA
ENDBRANCH  43  44
ENDBRANCH  42  43
ENDBRANCH  28  42
ENDBRANCH  25  28
ENDBRANCH  23  24
BRANCH  23  47
ATOM     47  CB  PHE A  10      44.632  31.071  -0.296  0.00  0.00    +0.055 C 
BRANCH  47  48
ATOM     48  CG  PHE A  10      45.830  30.187  -0.547  0.00  0.00    -0.020 A 
ATOM     49  CD2 PHE A  10      47.047  30.447   0.063  0.00  0.00    -0.004 A 
ATOM     50  CE2 PHE A  10      48.148  29.619  -0.161  0.00  0.00    -0.000 A 
ATOM     51  CZ  PHE A  10      48.024  28.511  -0.965  0.00  0.00    -0.000 A 
ATOM     52  CE1 PHE A  10      46.815  28.221  -1.546  0.00  0.00    -0.000 A 
ATOM     53  CD1 PHE A  10      45.729  29.069  -1.358  0.00  0.00    -0.004 A 
ENDBRANCH  47  48
ENDBRANCH  23  47
ENDBRANCH  21  23
ENDBRANCH  15  19
ENDBRANCH  11  12
BRANCH  11  54
ATOM     54  CB  SER A   8      41.542  24.534   0.621  0.00  0.00    +0.166 C 
BRANCH  54  55
ATOM     55  OG  SER A   8      41.669  23.283  -0.036  0.00  0.00    -0.380 OA
ATOM     56  H   SER A   8      42.275  23.380  -0.813  0.00  0.00    +0.211 HD
ENDBRANCH  54  55
ENDBRANCH  11  54
ENDBRANCH   8  11
ENDBRANCH   6   7
BRANCH   6  57
ATOM     57  CB  ILE A   7      46.477  22.482   2.936  0.00  0.00    +0.049 C 
ATOM     58  CG2 ILE A   7      46.191  23.566   3.982  0.00  0.00    +0.007 C 
BRANCH  57  59
ATOM     59  CG1 ILE A   7      47.215  21.244   3.554  0.00  0.00    -0.024 C 
ATOM     60  CD1 ILE A   7      48.344  21.507   4.131  0.00  0.00    -0.005 C 
ENDBRANCH  57  59
ENDBRANCH   6  57
ENDBRANCH   4   6
ENDBRANCH   1   2
BRANCH   1  62
ATOM     61  C   LYS A   5      46.712  17.136   1.612  0.00  0.00    +0.241 C 
ATOM     62  N   LYS A   6      45.422  17.467   1.403  0.00  0.00    -0.297 N 
ATOM     63  H   LYS A   6      44.689  16.873   1.840  0.00  0.00    +0.150 HD
ATOM     64  O   LYS A   5      47.665  17.754   1.144  0.00  0.00    -0.273 OA
BRANCH  61  65
ATOM     65  CA  LYS A   5      46.976  15.915   2.466  0.00  0.00    +0.149 C 
BRANCH  65  67
ATOM     66  C   ILE A   4      47.766  13.860   1.410  0.00  0.00    +0.241 C 
ATOM     67  N   LYS A   5      47.995  15.110   1.825  0.00  0.00    -0.297 N 
ATOM     68  H   LYS A   5      48.940  15.520   1.682  0.00  0.00    +0.150 HD
ATOM     69  O   ILE A   4      46.694  13.284   1.547  0.00  0.00    -0.273 OA
BRANCH  66  70
ATOM     70  CA  ILE A   4      48.888  13.146   0.743  0.00  0.00    +0.149 C 
BRANCH  70  73
ATOM     71  C   ALA A   3      50.192  11.360   1.778  0.00  0.00    +0.241 C 
ATOM     72  O   ALA A   3      51.256  11.894   1.483  0.00  0.00    -0.273 OA
ATOM     73  N   ILE A   4      49.008  11.855   1.417  0.00  0.00    -0.297 N 
ATOM     74  H   ILE A   4      48.147  11.308   1.620  0.00  0.00    +0.150 HD
BRANCH  71  75
ATOM     75  CA  ALA A   3      50.207  10.049   2.531  0.00  0.00    +0.149 C 
ATOM     76  CB  ALA A   3      50.337  10.329   4.034  0.00  0.00    +0.031 C 
BRANCH  75  78
ATOM     77  C   VAL A   2      51.259   8.325   1.126  0.00  0.00    +0.241 C 
ATOM     78  N   ALA A   3      51.367   9.316   2.027  0.00  0.00    -0.297 N 
ATOM     79  H   ALA A   3      52.312   9.571   2.379  0.00  0.00    +0.150 HD
ATOM     80  O   VAL A   2      50.179   7.899   0.737  0.00  0.00    -0.273 OA
BRANCH  77  81
ATOM     81  CA  VAL A   2      52.541   7.697   0.603  0.00  0.00    +0.148 C 
BRANCH  81  84
ATOM     82  C   ARG A   1      52.665   5.285  -0.017  0.00  0.00    +0.238 C 
ATOM     83  O   ARG A   1      53.432   4.983   0.899  0.00  0.00    -0.274 OA
ATOM     84  N   VAL A   2      52.185   6.520  -0.206  0.00  0.00    -0.297 N 
ATOM     85  H   VAL A   2      51.509   6.659  -0.984  0.00  0.00    +0.150 HD
BRANCH  82  86
ATOM     86  CA  ARG A   1      52.169   4.213  -0.981  0.00  0.00    +0.145 C 
BRANCH  86  87
ATOM     87  N   ARG A   1      53.267   3.338  -1.348  0.00  0.00    -0.238 NA
ATOM     88  H   ARG A   1      53.307   2.404  -0.893  0.00  0.00    +0.142 HD
ENDBRANCH  86  87
BRANCH  86  89
ATOM     89  CB  ARG A   1      51.036   3.429  -0.320  0.00  0.00    +0.030 C 
BRANCH  89  90
ATOM     90  CG  ARG A   1      50.346   2.449  -1.261  0.00  0.00    +0.045 C 
BRANCH  90  91
ATOM     91  CD  ARG A   1      49.145   1.826  -0.573  0.00  0.00    +0.174 C 
BRANCH  91  92
ATOM     92  NE  ARG A   1      47.897   2.544  -0.853  0.00  0.00    -0.265 N 
ATOM     93  CZ  ARG A   1      46.794   2.495  -0.107  0.00  0.00    +0.342 C 
ATOM     94  NH2 ARG A   1      46.766   1.774   1.013  0.00  0.00    -0.292 N 
ATOM     95 HH21 ARG A   1      45.901   1.742   1.589  0.00  0.00    +0.255 HD
ATOM     96 HH22 ARG A   1      47.609   1.244   1.311  0.00  0.00    +0.255 HD
ATOM     97  NH1 ARG A   1      45.714   3.178  -0.463  0.00  0.00    -0.292 N 
ATOM     98 HH11 ARG A   1      44.856   3.136   0.123  0.00  0.00    +0.255 HD
ATOM     99 HH12 ARG A   1      45.726   3.755  -1.328  0.00  0.00    +0.255 HD
ATOM    100  HE  ARG A   1      47.871   3.141  -1.704  0.00  0.00    +0.259 HD
ENDBRANCH  91  92
ENDBRANCH  90  91
ENDBRANCH  89  90
ENDBRANCH  86  89
ENDBRANCH  82  86
ENDBRANCH  81  84
BRANCH  81 101
ATOM    101  CB  VAL A   2      53.372   8.722  -0.228  0.00  0.00    +0.027 C 
ATOM    102  CG2 VAL A   2      54.658   8.100  -0.728  0.00  0.00    +0.002 C 
ATOM    103  CG1 VAL A   2      52.580   9.302  -1.408  0.00  0.00    +0.002 C 
ENDBRANCH  81 101
ENDBRANCH  77  81
ENDBRANCH  75  78
ENDBRANCH  71  75
ENDBRANCH  70  73
BRANCH  70 104
ATOM    104  CB  ILE A   4      48.623  13.035  -0.773  0.00  0.00    +0.027 C 
ATOM    105  CG2 ILE A   4      48.519  14.461  -1.366  0.00  0.00    +0.002 C 
BRANCH 104 106
ATOM    106  CG1 ILE A   4      49.744  12.218  -1.464  0.00  0.00    +0.002 C 
ATOM    107  CD1 ILE A   4      49.604  12.074  -2.940  0.00  0.00    +0.000 C 
ENDBRANCH 104 106
ENDBRANCH  70 104
ENDBRANCH  66  70
ENDBRANCH  65  67
BRANCH  65 108
ATOM    108  CB  LYS A   5      47.340  16.293   3.896  0.00  0.00    +0.029 C 
BRANCH 108 109
ATOM    109  CG  LYS A   5      48.545  17.163   4.051  0.00  0.00    +0.000 C 
BRANCH 109 110
ATOM    110  CD  LYS A   5      48.993  17.177   5.512  0.00  0.00    -0.024 C 
BRANCH 110 111
ATOM    111  CE  LYS A   5      50.359  17.745   5.608  0.00  0.00    -0.086 C 
BRANCH 111 112
ATOM    112  NZ  LYS A   5      50.929  17.650   6.965  0.00  0.00    +0.380 N 
ATOM    113  HZ1 LYS A   5      50.323  18.170   7.631  0.00  0.00    -0.089 HD
ATOM    114  HZ2 LYS A   5      50.981  16.651   7.249  0.00  0.00    -0.089 HD
ATOM    115  HZ3 LYS A   5      51.884  18.063   6.968  0.00  0.00    -0.089 HD
ENDBRANCH 111 112
ENDBRANCH 110 111
ENDBRANCH 109 110
ENDBRANCH 108 109
ENDBRANCH  65 108
ENDBRANCH  61  65
ENDBRANCH   1  62
BRANCH   1 116
ATOM    116  CB  LYS A   6      43.745  18.246  -0.216  0.00  0.00    +0.029 C 
BRANCH 116 117
ATOM    117  CG  LYS A   6      43.264  19.404  -1.078  0.00  0.00    +0.000 C 
BRANCH 117 118
ATOM    118  CD  LYS A   6      41.968  19.082  -1.796  0.00  0.00    -0.024 C 
BRANCH 118 119
ATOM    119  CE  LYS A   6      41.433  20.302  -2.481  0.00  0.00    -0.086 C 
BRANCH 119 120
ATOM    120  NZ  LYS A   6      40.004  20.135  -2.825  0.00  0.00    +0.380 N 
ATOM    121  HZ1 LYS A   6      39.456  19.973  -1.956  0.00  0.00    -0.089 HD
ATOM    122  HZ2 LYS A   6      39.660  20.995  -3.298  0.00  0.00    -0.089 HD
ATOM    123  HZ3 LYS A   6      39.895  19.320  -3.462  0.00  0.00    -0.089 HD
ENDBRANCH 119 120
ENDBRANCH 118 119
ENDBRANCH 117 118
ENDBRANCH 116 117
ENDBRANCH   1 116
TORSDOF 51
REMARK  Name = ../refined-set-2016/4qyy/4qyy_pocket.pdb
REMARK  242 active torsions:
REMARK  status: ('A' for Active; 'I' for Inactive)
REMARK    1  A    between atoms: _1  and  _3
REMARK    2  A    between atoms: _3  and  _4
REMARK    3  A    between atoms: _3  and  _6
REMARK    4  A    between atoms: _6  and  _7
REMARK    5  A    between atoms: _10  and  _12
REMARK    6  A    between atoms: _12  and  _13
REMARK    7  A    between atoms: _15  and  _17
REMARK    8  A    between atoms: _17  and  _18
REMARK    9  A    between atoms: _17  and  _20
REMARK   10  A    between atoms: _20  and  _21
REMARK   11  A    between atoms: _21  and  _22
REMARK   12  A    between atoms: _25  and  _27
REMARK   13  A    between atoms: _27  and  _28
REMARK   14  A    between atoms: _30  and  _32
REMARK   15  A    between atoms: _32  and  _33
REMARK   16  A    between atoms: _36  and  _38
REMARK   17  A    between atoms: _38  and  _39
REMARK   18  A    between atoms: _38  and  _41
REMARK   19  A    between atoms: _41  and  _42
REMARK   20  A    between atoms: _47  and  _48
REMARK   21  A    between atoms: _50  and  _52
REMARK   22  A    between atoms: _52  and  _53
REMARK   23  A    between atoms: _55  and  _57
REMARK   24  A    between atoms: _57  and  _58
REMARK   25  A    between atoms: _57  and  _60
REMARK   26  A    between atoms: _60  and  _61
REMARK   27  A    between atoms: _61  and  _62
REMARK   28  A    between atoms: _64  and  _66
REMARK   29  A    between atoms: _66  and  _67
REMARK   30  A    between atoms: _66  and  _69
REMARK   31  A    between atoms: _72  and  _74
REMARK   32  A    between atoms: _74  and  _75
REMARK   33  A    between atoms: _74  and  _77
REMARK   34  A    between atoms: _79  and  _81
REMARK   35  A    between atoms: _81  and  _82
REMARK   36  A    between atoms: _81  and  _84
REMARK   37  A    between atoms: _84  and  _85
REMARK   38  A    between atoms: _87  and  _89
REMARK   39  A    between atoms: _89  and  _90
REMARK   40  A    between atoms: _89  and  _92
REMARK   41  A    between atoms: _92  and  _93
REMARK   42  A    between atoms: _93  and  _94
REMARK   43  A    between atoms: _94  and  _95
REMARK   44  A    between atoms: _104  and  _106
REMARK   45  A    between atoms: _106  and  _107
REMARK   46  A    between atoms: _106  and  _109
REMARK   47  A    between atoms: _112  and  _114
REMARK   48  A    between atoms: _114  and  _115
REMARK   49  A    between atoms: _118  and  _120
REMARK   50  A    between atoms: _120  and  _121
REMARK   51  A    between atoms: _120  and  _123
REMARK   52  A    between atoms: _123  and  _124
REMARK   53  A    between atoms: _127  and  _129
REMARK   54  A    between atoms: _129  and  _130
REMARK   55  A    between atoms: _129  and  _132
REMARK   56  A    between atoms: _132  and  _133
REMARK   57  A    between atoms: _133  and  _134
REMARK   58  A    between atoms: _134  and  _135
REMARK   59  A    between atoms: _135  and  _136
REMARK   60  A    between atoms: _140  and  _142
REMARK   61  A    between atoms: _142  and  _143
REMARK   62  A    between atoms: _142  and  _145
REMARK   63  A    between atoms: _145  and  _146
REMARK   64  A    between atoms: _146  and  _147
REMARK   65  A    between atoms: _147  and  _148
REMARK   66  A    between atoms: _148  and  _149
REMARK   67  A    between atoms: _153  and  _155
REMARK   68  A    between atoms: _155  and  _156
REMARK   69  A    between atoms: _155  and  _158
REMARK   70  A    between atoms: _158  and  _159
REMARK   71  A    between atoms: _162  and  _164
REMARK   72  A    between atoms: _164  and  _165
REMARK   73  A    between atoms: _164  and  _167
REMARK   74  A    between atoms: _167  and  _168
REMARK   75  A    between atoms: _171  and  _172
REMARK   76  A    between atoms: _177  and  _179
REMARK   77  A    between atoms: _179  and  _180
REMARK   78  A    between atoms: _179  and  _182
REMARK   79  A    between atoms: _182  and  _183
REMARK   80  A    between atoms: _189  and  _191
REMARK   81  A    between atoms: _191  and  _192
REMARK   82  A    between atoms: _191  and  _194
REMARK   83  A    between atoms: _194  and  _195
REMARK   84  A    between atoms: _195  and  _196
REMARK   85  A    between atoms: _199  and  _201
REMARK   86  A    between atoms: _201  and  _202
REMARK   87  A    between atoms: _201  and  _204
REMARK   88  A    between atoms: _204  and  _205
REMARK   89  A    between atoms: _210  and  _212
REMARK   90  A    between atoms: _212  and  _213
REMARK   91  A    between atoms: _212  and  _215
REMARK   92  A    between atoms: _215  and  _216
REMARK   93  A    between atoms: _219  and  _221
REMARK   94  A    between atoms: _221  and  _222
REMARK   95  A    between atoms: _221  and  _224
REMARK   96  A    between atoms: _224  and  _225
REMARK   97  A    between atoms: _230  and  _231
REMARK   98  A    between atoms: _233  and  _235
REMARK   99  A    between atoms: _235  and  _236
REMARK  100  A    between atoms: _235  and  _238
REMARK  101  A    between atoms: _240  and  _242
REMARK  102  A    between atoms: _242  and  _243
REMARK  103  A    between atoms: _242  and  _245
REMARK  104  A    between atoms: _245  and  _246
REMARK  105  A    between atoms: _246  and  _247
REMARK  106  A    between atoms: _252  and  _254
REMARK  107  A    between atoms: _254  and  _255
REMARK  108  A    between atoms: _254  and  _257
REMARK  109  A    between atoms: _257  and  _258
REMARK  110  A    between atoms: _258  and  _259
REMARK  111  A    between atoms: _259  and  _260
REMARK  112  A    between atoms: _269  and  _271
REMARK  113  A    between atoms: _271  and  _272
REMARK  114  A    between atoms: _271  and  _274
REMARK  115  A    between atoms: _274  and  _275
REMARK  116  A    between atoms: _278  and  _280
REMARK  117  A    between atoms: _280  and  _281
REMARK  118  A    between atoms: _280  and  _283
REMARK  119  A    between atoms: _283  and  _284
REMARK  120  A    between atoms: _287  and  _289
REMARK  121  A    between atoms: _289  and  _290
REMARK  122  A    between atoms: _289  and  _292
REMARK  123  A    between atoms: _292  and  _293
REMARK  124  A    between atoms: _293  and  _294
REMARK  125  A    between atoms: _294  and  _295
REMARK  126  A    between atoms: _304  and  _306
REMARK  127  A    between atoms: _306  and  _307
REMARK  128  A    between atoms: _306  and  _309
REMARK  129  A    between atoms: _309  and  _310
REMARK  130  A    between atoms: _310  and  _311
REMARK  131  A    between atoms: _314  and  _316
REMARK  132  A    between atoms: _316  and  _317
REMARK  133  A    between atoms: _316  and  _319
REMARK  134  A    between atoms: _319  and  _320
REMARK  135  A    between atoms: _323  and  _325
REMARK  136  A    between atoms: _325  and  _326
REMARK  137  A    between atoms: _325  and  _328
REMARK  138  A    between atoms: _328  and  _329
REMARK  139  A    between atoms: _332  and  _334
REMARK  140  A    between atoms: _334  and  _335
REMARK  141  A    between atoms: _334  and  _337
REMARK  142  A    between atoms: _337  and  _338
REMARK  143  A    between atoms: _341  and  _343
REMARK  144  A    between atoms: _343  and  _344
REMARK  145  A    between atoms: _346  and  _348
REMARK  146  A    between atoms: _348  and  _349
REMARK  147  A    between atoms: _348  and  _351
REMARK  148  A    between atoms: _351  and  _352
REMARK  149  A    between atoms: _355  and  _357
REMARK  150  A    between atoms: _357  and  _358
REMARK  151  A    between atoms: _357  and  _360
REMARK  152  A    between atoms: _363  and  _365
REMARK  153  A    between atoms: _365  and  _366
REMARK  154  A    between atoms: _365  and  _368
REMARK  155  A    between atoms: _368  and  _369
REMARK  156  A    between atoms: _372  and  _374
REMARK  157  A    between atoms: _374  and  _375
REMARK  158  A    between atoms: _374  and  _377
REMARK  159  A    between atoms: _380  and  _382
REMARK  160  A    between atoms: _382  and  _383
REMARK  161  A    between atoms: _382  and  _385
REMARK  162  A    between atoms: _385  and  _386
REMARK  163  A    between atoms: _386  and  _387
REMARK  164  A    between atoms: _392  and  _394
REMARK  165  A    between atoms: _394  and  _395
REMARK  166  A    between atoms: _394  and  _397
REMARK  167  A    between atoms: _397  and  _398
REMARK  168  A    between atoms: _401  and  _403
REMARK  169  A    between atoms: _403  and  _404
REMARK  170  A    between atoms: _403  and  _406
REMARK  171  A    between atoms: _406  and  _407
REMARK  172  A    between atoms: _410  and  _412
REMARK  173  A    between atoms: _412  and  _413
REMARK  174  A    between atoms: _412  and  _415
REMARK  175  A    between atoms: _415  and  _416
REMARK  176  A    between atoms: _416  and  _417
REMARK  177  A    between atoms: _419  and  _421
REMARK  178  A    between atoms: _421  and  _422
REMARK  179  A    between atoms: _421  and  _424
REMARK  180  A    between atoms: _424  and  _425
REMARK  181  A    between atoms: _425  and  _426
REMARK  182  A    between atoms: _429  and  _431
REMARK  183  A    between atoms: _431  and  _432
REMARK  184  A    between atoms: _431  and  _434
REMARK  185  A    between atoms: _434  and  _435
REMARK  186  A    between atoms: _438  and  _440
REMARK  187  A    between atoms: _440  and  _441
REMARK  188  A    between atoms: _440  and  _443
REMARK  189  A    between atoms: _443  and  _444
REMARK  190  A    between atoms: _447  and  _449
REMARK  191  A    between atoms: _449  and  _450
REMARK  192  A    between atoms: _449  and  _452
REMARK  193  A    between atoms: _452  and  _453
REMARK  194  A    between atoms: _453  and  _454
REMARK  195  A    between atoms: _454  and  _455
REMARK  196  A    between atoms: _455  and  _456
REMARK  197  A    between atoms: _460  and  _462
REMARK  198  A    between atoms: _462  and  _463
REMARK  199  A    between atoms: _462  and  _465
REMARK  200  A    between atoms: _465  and  _466
REMARK  201  A    between atoms: _468  and  _470
REMARK  202  A    between atoms: _470  and  _471
REMARK  203  A    between atoms: _470  and  _473
REMARK  204  A    between atoms: _473  and  _474
REMARK  205  A    between atoms: _479  and  _481
REMARK  206  A    between atoms: _481  and  _482
REMARK  207  A    between atoms: _481  and  _484
REMARK  208  A    between atoms: _484  and  _485
REMARK  209  A    between atoms: _488  and  _490
REMARK  210  A    between atoms: _490  and  _491
REMARK  211  A    between atoms: _490  and  _493
REMARK  212  A    between atoms: _493  and  _494
REMARK  213  A    between atoms: _497  and  _499
REMARK  214  A    between atoms: _499  and  _500
REMARK  215  A    between atoms: _499  and  _502
REMARK  216  A    between atoms: _502  and  _503
REMARK  217  A    between atoms: _503  and  _504
REMARK  218  A    between atoms: _504  and  _505
REMARK  219  A    between atoms: _505  and  _506
REMARK  220  A    between atoms: _510  and  _512
REMARK  221  A    between atoms: _512  and  _513
REMARK  222  A    between atoms: _512  and  _515
REMARK  223  A    between atoms: _515  and  _516
REMARK  224  A    between atoms: _519  and  _521
REMARK  225  A    between atoms: _521  and  _522
REMARK  226  A    between atoms: _521  and  _524
REMARK  227  A    between atoms: _526  and  _528
REMARK  228  A    between atoms: _528  and  _529
REMARK  229  A    between atoms: _528  and  _531
REMARK  230  A    between atoms: _531  and  _532
REMARK  231  A    between atoms: _535  and  _537
REMARK  232  A    between atoms: _537  and  _538
REMARK  233  A    between atoms: _537  and  _540
REMARK  234  A    between atoms: _540  and  _541
REMARK  235  A    between atoms: _547  and  _549
REMARK  236  A    between atoms: _549  and  _550
REMARK  237  A    between atoms: _552  and  _554
REMARK  238  A    between atoms: _554  and  _555
REMARK  239  A    between atoms: _554  and  _557
REMARK  240  A    between atoms: _557  and  _558
REMARK  241  A    between atoms: _561  and  _563
REMARK  242  A    between atoms: _563  and  _564
REMARK                            x       y       z     vdW  Elec       q    Type
REMARK                         _______ _______ _______ _____ _____    ______ ____
ROOT
ATOM      1  CA  ARG A   5      49.674  27.545   9.918  0.00  0.00    +0.149 C 
ENDROOT
BRANCH   1   2
ATOM      2  C   ARG A   5      50.259  26.694   8.788  0.00  0.00    +0.241 C 
ATOM      3  O   ARG A   5      51.075  25.814   9.035  0.00  0.00    -0.273 OA
ATOM      4  N   THR A   6      49.890  26.990   7.538  0.00  0.00    -0.295 N 
ATOM      5  H   THR A   6      49.215  27.766   7.380  0.00  0.00    +0.150 HD
BRANCH   4   6
ATOM      6  CA  THR A   6      50.406  26.257   6.391  0.00  0.00    +0.176 C 
BRANCH   6   7
ATOM      7  C   THR A   6      51.874  26.609   6.137  0.00  0.00    +0.243 C 
ATOM      8  N   LEU A   7      52.235  27.896   6.211  0.00  0.00    -0.297 N 
ATOM      9  H   LEU A   7      51.521  28.618   6.435  0.00  0.00    +0.150 HD
ATOM     10  O   THR A   6      52.661  25.721   5.822  0.00  0.00    -0.273 OA
BRANCH   8  11
ATOM     11  CA  LEU A   7      53.616  28.295   5.981  0.00  0.00    +0.149 C 
BRANCH  11  12
ATOM     12  C   LEU A   7      54.512  27.744   7.077  0.00  0.00    +0.241 C 
ATOM     13  N   ARG A   8      54.039  27.723   8.321  0.00  0.00    -0.297 N 
ATOM     14  H   ARG A   8      53.108  28.135   8.534  0.00  0.00    +0.150 HD
ATOM     15  O   LEU A   7      55.602  27.272   6.789  0.00  0.00    -0.273 OA
BRANCH  13  16
ATOM     16  CA  ARG A   8      54.849  27.107   9.404  0.00  0.00    +0.149 C 
BRANCH  16  17
ATOM     17  C   ARG A   8      55.085  25.642   9.168  0.00  0.00    +0.241 C 
ATOM     18  O   ARG A   8      56.232  25.171   9.269  0.00  0.00    -0.273 OA
ATOM     19  N   GLU A   9      54.012  24.893   8.871  0.00  0.00    -0.297 N 
ATOM     20  H   GLU A   9      53.079  25.351   8.831  0.00  0.00    +0.150 HD
BRANCH  19  21
ATOM     21  CA  GLU A   9      54.103  23.448   8.600  0.00  0.00    +0.149 C 
BRANCH  21  22
ATOM     22  C   GLU A   9      55.160  23.201   7.511  0.00  0.00    +0.241 C 
ATOM     23  O   GLU A   9      56.071  22.411   7.672  0.00  0.00    -0.273 OA
ATOM     24  N   ILE A  10      55.057  23.928   6.395  0.00  0.00    -0.298 N 
ATOM     25  H   ILE A  10      54.309  24.647   6.320  0.00  0.00    +0.150 HD
BRANCH  24  26
ATOM     26  CA  ILE A  10      55.967  23.733   5.290  0.00  0.00    +0.137 C 
BRANCH  26  27
ATOM     27  CB  ILE A  10      55.365  24.445   4.045  0.00  0.00    +0.026 C 
ATOM     28  CG2 ILE A  10      56.379  24.537   2.898  0.00  0.00    +0.002 C 
BRANCH  27  29
ATOM     29  CG1 ILE A  10      54.062  23.743   3.595  0.00  0.00    +0.002 C 
ATOM     30  CD1 ILE A  10      53.327  24.509   2.538  0.00  0.00    +0.000 C 
ENDBRANCH  27  29
ENDBRANCH  26  27
BRANCH  26  31
ATOM     31  C   ILE A  10      57.393  24.187   5.582  0.00  0.00    +0.227 C 
ATOM     32  O   ILE A  10      58.316  23.404   5.379  0.00  0.00    -0.286 OA
ENDBRANCH  26  31
ENDBRANCH  24  26
ENDBRANCH  21  22
BRANCH  21  33
ATOM     33  CB  GLU A   9      52.734  22.905   8.154  0.00  0.00    +0.041 C 
BRANCH  33  34
ATOM     34  CG  GLU A   9      52.731  21.453   7.666  0.00  0.00    +0.116 C 
BRANCH  34  35
ATOM     35  CD  GLU A   9      52.681  20.362   8.717  0.00  0.00    +0.365 C 
ATOM     36  OE2 GLU A   9      52.866  20.659   9.913  0.00  0.00    -0.246 OA
ATOM     37  OE1 GLU A   9      52.522  19.185   8.332  0.00  0.00    -0.246 OA
ENDBRANCH  34  35
ENDBRANCH  33  34
ENDBRANCH  21  33
ENDBRANCH  19  21
ENDBRANCH  16  17
BRANCH  16  38
ATOM     38  CB  ARG A   8      54.146  27.265  10.737  0.00  0.00    +0.033 C 
BRANCH  38  39
ATOM     39  CG  ARG A   8      54.134  28.697  11.219  0.00  0.00    +0.045 C 
BRANCH  39  40
ATOM     40  CD  ARG A   8      53.342  28.826  12.508  0.00  0.00    +0.174 C 
BRANCH  40  41
ATOM     41  NE  ARG A   8      52.968  30.200  12.826  0.00  0.00    -0.265 N 
ATOM     42  CZ  ARG A   8      53.797  31.168  13.227  0.00  0.00    +0.342 C 
ATOM     43  NH2 ARG A   8      53.332  32.389  13.472  0.00  0.00    -0.292 N 
ATOM     44 HH21 ARG A   8      53.981  33.140  13.784  0.00  0.00    +0.255 HD
ATOM     45 HH22 ARG A   8      52.319  32.594  13.352  0.00  0.00    +0.255 HD
ATOM     46  NH1 ARG A   8      55.096  30.928  13.374  0.00  0.00    -0.292 N 
ATOM     47 HH11 ARG A   8      55.733  31.688  13.687  0.00  0.00    +0.255 HD
ATOM     48 HH12 ARG A   8      55.475  29.980  13.176  0.00  0.00    +0.255 HD
ATOM     49  HE  ARG A   8      51.963  30.449  12.732  0.00  0.00    +0.259 HD
ENDBRANCH  40  41
ENDBRANCH  39  40
ENDBRANCH  38  39
ENDBRANCH  16  38
ENDBRANCH  13  16
ENDBRANCH  11  12
BRANCH  11  50
ATOM     50  CB  LEU A   7      53.716  29.819   5.915  0.00  0.00    +0.029 C 
BRANCH  50  51
ATOM     51  CG  LEU A   7      55.088  30.409   5.617  0.00  0.00    +0.002 C 
ATOM     52  CD2 LEU A   7      54.991  31.903   5.552  0.00  0.00    +0.000 C 
ATOM     53  CD1 LEU A   7      55.651  29.913   4.286  0.00  0.00    +0.000 C 
ENDBRANCH  50  51
ENDBRANCH  11  50
ENDBRANCH   8  11
ENDBRANCH   6   7
BRANCH   6  54
ATOM     54  CB  THR A   6      49.564  26.564   5.154  0.00  0.00    +0.137 C 
ATOM     55  CG2 THR A   6      50.041  25.811   3.929  0.00  0.00    +0.034 C 
BRANCH  54  56
ATOM     56  OG1 THR A   6      48.193  26.224   5.401  0.00  0.00    -0.382 OA
ATOM     57  HG1 THR A   6      47.856  26.754   6.166  0.00  0.00    +0.210 HD
ENDBRANCH  54  56
ENDBRANCH   6  54
ENDBRANCH   4   6
ENDBRANCH   1   2
BRANCH   1  59
ATOM     58  C   GLN A   4      50.504  29.705   9.207  0.00  0.00    +0.241 C 
ATOM     59  N   ARG A   5      49.466  28.934   9.513  0.00  0.00    -0.297 N 
ATOM     60  H   ARG A   5      48.502  29.320   9.464  0.00  0.00    +0.150 HD
ATOM     61  O   GLN A   4      51.662  29.282   9.177  0.00  0.00    -0.273 OA
BRANCH  58  62
ATOM     62  CA  GLN A   4      50.203  31.139   8.825  0.00  0.00    +0.149 C 
BRANCH  62  64
ATOM     63  C   CYS A   3      49.189  30.575   6.636  0.00  0.00    +0.242 C 
ATOM     64  N   GLN A   4      49.093  31.174   7.856  0.00  0.00    -0.297 N 
ATOM     65  H   GLN A   4      48.214  31.669   8.110  0.00  0.00    +0.150 HD
ATOM     66  O   CYS A   3      50.202  30.017   6.237  0.00  0.00    -0.273 OA
BRANCH  63  67
ATOM     67  CA  CYS A   3      48.013  30.669   5.699  0.00  0.00    +0.160 C 
BRANCH  67  70
ATOM     68  C   TYR A   2      46.446  29.289   7.042  0.00  0.00    +0.241 C 
ATOM     69  O   TYR A   2      47.168  28.294   6.973  0.00  0.00    -0.273 OA
ATOM     70  N   CYS A   3      46.752  30.471   6.436  0.00  0.00    -0.296 N 
ATOM     71  H   CYS A   3      46.074  31.258   6.496  0.00  0.00    +0.150 HD
BRANCH  68  72
ATOM     72  CA  TYR A   2      45.137  29.212   7.831  0.00  0.00    +0.153 C 
BRANCH  72  75
ATOM     73  C   THR A   1      45.693  30.905   9.506  0.00  0.00    +0.241 C 
ATOM     74  O   THR A   1      46.685  30.276   9.877  0.00  0.00    -0.274 OA
ATOM     75  N   TYR A   2      44.901  30.489   8.518  0.00  0.00    -0.297 N 
ATOM     76  H   TYR A   2      44.098  31.082   8.227  0.00  0.00    +0.150 HD
BRANCH  73  77
ATOM     77  CA  THR A   1      45.362  32.243  10.170  0.00  0.00    +0.172 C 
BRANCH  77  78
ATOM     78  N   THR A   1      45.001  33.279   9.187  0.00  0.00    -0.236 NA
ATOM     79  H   THR A   1      44.063  33.725   9.229  0.00  0.00    +0.142 HD
ENDBRANCH  77  78
BRANCH  77  80
ATOM     80  CB  THR A   1      44.261  32.128  11.224  0.00  0.00    +0.135 C 
ATOM     81  CG2 THR A   1      44.537  31.047  12.243  0.00  0.00    +0.034 C 
BRANCH  80  82
ATOM     82  OG1 THR A   1      44.166  33.387  11.885  0.00  0.00    -0.383 OA
ATOM     83  HG1 THR A   1      43.941  34.089  11.224  0.00  0.00    +0.210 HD
ENDBRANCH  80  82
ENDBRANCH  77  80
ENDBRANCH  73  77
ENDBRANCH  72  75
BRANCH  72  84
ATOM     84  CB  TYR A   2      43.992  28.832   6.873  0.00  0.00    +0.055 C 
BRANCH  84  85
ATOM     85  CG  TYR A   2      42.574  28.856   7.416  0.00  0.00    -0.020 A 
ATOM     86  CD2 TYR A   2      42.325  28.881   8.783  0.00  0.00    -0.001 A 
ATOM     87  CE2 TYR A   2      41.020  28.928   9.281  0.00  0.00    +0.036 A 
ATOM     88  CZ  TYR A   2      39.948  28.932   8.407  0.00  0.00    +0.134 A 
ATOM     89  CE1 TYR A   2      40.176  28.893   7.043  0.00  0.00    +0.036 A 
ATOM     90  CD1 TYR A   2      41.482  28.868   6.557  0.00  0.00    -0.001 A 
BRANCH  88  91
ATOM     91  OH  TYR A   2      38.662  28.982   8.909  0.00  0.00    -0.506 OA
ATOM     92  HH  TYR A   2      38.696  29.004   9.898  0.00  0.00    +0.292 HD
ENDBRANCH  88  91
ENDBRANCH  84  85
ENDBRANCH  72  84
ENDBRANCH  68  72
ENDBRANCH  67  70
BRANCH  67  93
ATOM     93  CB  CYS A   3      48.032  32.010   4.979  0.00  0.00    +0.098 C 
ATOM     94  SG  CYS A   3      46.883  32.126   3.598  0.00  0.00    -0.080 S 
ENDBRANCH  67  93
ENDBRANCH  63  67
ENDBRANCH  62  64
BRANCH  62  95
ATOM     95  CB  GLN A   4      49.864  31.946  10.096  0.00  0.00    +0.039 C 
BRANCH  95  96
ATOM     96  CG  GLN A   4      49.810  33.454   9.883  0.00  0.00    +0.087 C 
BRANCH  96  97
ATOM     97  CD  GLN A   4      49.196  34.203  11.049  0.00  0.00    +0.219 C 
ATOM     98  OE1 GLN A   4      48.282  33.733  11.716  0.00  0.00    -0.275 OA
ATOM     99  NE2 GLN A   4      49.599  35.442  11.253  0.00  0.00    -0.329 N 
ATOM    100 HE21 GLN A   4      49.141  36.024  11.983  0.00  0.00    +0.145 HD
ATOM    101 HE22 GLN A   4      50.375  35.837  10.684  0.00  0.00    +0.145 HD
ENDBRANCH  96  97
ENDBRANCH  95  96
ENDBRANCH  62  95
ENDBRANCH  58  62
ENDBRANCH   1  59
BRANCH   1 102
ATOM    102  CB  ARG A   5      48.379  26.933  10.431  0.00  0.00    +0.033 C 
BRANCH 102 103
ATOM    103  CG  ARG A   5      47.897  27.604  11.707  0.00  0.00    +0.045 C 
BRANCH 103 104
ATOM    104  CD  ARG A   5      46.641  26.978  12.236  0.00  0.00    +0.174 C 
BRANCH 104 105
ATOM    105  NE  ARG A   5      46.105  27.777  13.335  0.00  0.00    -0.265 N 
ATOM    106  CZ  ARG A   5      44.916  27.589  13.897  0.00  0.00    +0.342 C 
ATOM    107  NH2 ARG A   5      44.511  28.379  14.881  0.00  0.00    -0.292 N 
ATOM    108 HH21 ARG A   5      43.580  28.229  15.319  0.00  0.00    +0.255 HD
ATOM    109 HH22 ARG A   5      45.125  29.149  15.216  0.00  0.00    +0.255 HD
ATOM    110  NH1 ARG A   5      44.124  26.603  13.487  0.00  0.00    -0.292 N 
ATOM    111 HH11 ARG A   5      43.195  26.463  13.933  0.00  0.00    +0.255 HD
ATOM    112 HH12 ARG A   5      44.434  25.972  12.721  0.00  0.00    +0.255 HD
ATOM    113  HE  ARG A   5      46.697  28.549  13.704  0.00  0.00    +0.259 HD
ENDBRANCH 104 105
ENDBRANCH 103 104
ENDBRANCH 102 103
ENDBRANCH   1 102
TORSDOF 46
REMARK  Name = ../refined-set-2016/4qyy/4qyy_pocket.pdb
REMARK  242 active torsions:
REMARK  status: ('A' for Active; 'I' for Inactive)
REMARK    1  A    between atoms: _1  and  _3
REMARK    2  A    between atoms: _3  and  _4
REMARK    3  A    between atoms: _3  and  _6
REMARK    4  A    between atoms: _6  and  _7
REMARK    5  A    between atoms: _10  and  _12
REMARK    6  A    between atoms: _12  and  _13
REMARK    7  A    between atoms: _15  and  _17
REMARK    8  A    between atoms: _17  and  _18
REMARK    9  A    between atoms: _17  and  _20
REMARK   10  A    between atoms: _20  and  _21
REMARK   11  A    between atoms: _21  and  _22
REMARK   12  A    between atoms: _25  and  _27
REMARK   13  A    between atoms: _27  and  _28
REMARK   14  A    between atoms: _30  and  _32
REMARK   15  A    between atoms: _32  and  _33
REMARK   16  A    between atoms: _36  and  _38
REMARK   17  A    between atoms: _38  and  _39
REMARK   18  A    between atoms: _38  and  _41
REMARK   19  A    between atoms: _41  and  _42
REMARK   20  A    between atoms: _47  and  _48
REMARK   21  A    between atoms: _50  and  _52
REMARK   22  A    between atoms: _52  and  _53
REMARK   23  A    between atoms: _55  and  _57
REMARK   24  A    between atoms: _57  and  _58
REMARK   25  A    between atoms: _57  and  _60
REMARK   26  A    between atoms: _60  and  _61
REMARK   27  A    between atoms: _61  and  _62
REMARK   28  A    between atoms: _64  and  _66
REMARK   29  A    between atoms: _66  and  _67
REMARK   30  A    between atoms: _66  and  _69
REMARK   31  A    between atoms: _72  and  _74
REMARK   32  A    between atoms: _74  and  _75
REMARK   33  A    between atoms: _74  and  _77
REMARK   34  A    between atoms: _79  and  _81
REMARK   35  A    between atoms: _81  and  _82
REMARK   36  A    between atoms: _81  and  _84
REMARK   37  A    between atoms: _84  and  _85
REMARK   38  A    between atoms: _87  and  _89
REMARK   39  A    between atoms: _89  and  _90
REMARK   40  A    between atoms: _89  and  _92
REMARK   41  A    between atoms: _92  and  _93
REMARK   42  A    between atoms: _93  and  _94
REMARK   43  A    between atoms: _94  and  _95
REMARK   44  A    between atoms: _104  and  _106
REMARK   45  A    between atoms: _106  and  _107
REMARK   46  A    between atoms: _106  and  _109
REMARK   47  A    between atoms: _112  and  _114
REMARK   48  A    between atoms: _114  and  _115
REMARK   49  A    between atoms: _118  and  _120
REMARK   50  A    between atoms: _120  and  _121
REMARK   51  A    between atoms: _120  and  _123
REMARK   52  A    between atoms: _123  and  _124
REMARK   53  A    between atoms: _127  and  _129
REMARK   54  A    between atoms: _129  and  _130
REMARK   55  A    between atoms: _129  and  _132
REMARK   56  A    between atoms: _132  and  _133
REMARK   57  A    between atoms: _133  and  _134
REMARK   58  A    between atoms: _134  and  _135
REMARK   59  A    between atoms: _135  and  _136
REMARK   60  A    between atoms: _140  and  _142
REMARK   61  A    between atoms: _142  and  _143
REMARK   62  A    between atoms: _142  and  _145
REMARK   63  A    between atoms: _145  and  _146
REMARK   64  A    between atoms: _146  and  _147
REMARK   65  A    between atoms: _147  and  _148
REMARK   66  A    between atoms: _148  and  _149
REMARK   67  A    between atoms: _153  and  _155
REMARK   68  A    between atoms: _155  and  _156
REMARK   69  A    between atoms: _155  and  _158
REMARK   70  A    between atoms: _158  and  _159
REMARK   71  A    between atoms: _162  and  _164
REMARK   72  A    between atoms: _164  and  _165
REMARK   73  A    between atoms: _164  and  _167
REMARK   74  A    between atoms: _167  and  _168
REMARK   75  A    between atoms: _171  and  _172
REMARK   76  A    between atoms: _177  and  _179
REMARK   77  A    between atoms: _179  and  _180
REMARK   78  A    between atoms: _179  and  _182
REMARK   79  A    between atoms: _182  and  _183
REMARK   80  A    between atoms: _189  and  _191
REMARK   81  A    between atoms: _191  and  _192
REMARK   82  A    between atoms: _191  and  _194
REMARK   83  A    between atoms: _194  and  _195
REMARK   84  A    between atoms: _195  and  _196
REMARK   85  A    between atoms: _199  and  _201
REMARK   86  A    between atoms: _201  and  _202
REMARK   87  A    between atoms: _201  and  _204
REMARK   88  A    between atoms: _204  and  _205
REMARK   89  A    between atoms: _210  and  _212
REMARK   90  A    between atoms: _212  and  _213
REMARK   91  A    between atoms: _212  and  _215
REMARK   92  A    between atoms: _215  and  _216
REMARK   93  A    between atoms: _219  and  _221
REMARK   94  A    between atoms: _221  and  _222
REMARK   95  A    between atoms: _221  and  _224
REMARK   96  A    between atoms: _224  and  _225
REMARK   97  A    between atoms: _230  and  _231
REMARK   98  A    between atoms: _233  and  _235
REMARK   99  A    between atoms: _235  and  _236
REMARK  100  A    between atoms: _235  and  _238
REMARK  101  A    between atoms: _240  and  _242
REMARK  102  A    between atoms: _242  and  _243
REMARK  103  A    between atoms: _242  and  _245
REMARK  104  A    between atoms: _245  and  _246
REMARK  105  A    between atoms: _246  and  _247
REMARK  106  A    between atoms: _252  and  _254
REMARK  107  A    between atoms: _254  and  _255
REMARK  108  A    between atoms: _254  and  _257
REMARK  109  A    between atoms: _257  and  _258
REMARK  110  A    between atoms: _258  and  _259
REMARK  111  A    between atoms: _259  and  _260
REMARK  112  A    between atoms: _269  and  _271
REMARK  113  A    between atoms: _271  and  _272
REMARK  114  A    between atoms: _271  and  _274
REMARK  115  A    between atoms: _274  and  _275
REMARK  116  A    between atoms: _278  and  _280
REMARK  117  A    between atoms: _280  and  _281
REMARK  118  A    between atoms: _280  and  _283
REMARK  119  A    between atoms: _283  and  _284
REMARK  120  A    between atoms: _287  and  _289
REMARK  121  A    between atoms: _289  and  _290
REMARK  122  A    between atoms: _289  and  _292
REMARK  123  A    between atoms: _292  and  _293
REMARK  124  A    between atoms: _293  and  _294
REMARK  125  A    between atoms: _294  and  _295
REMARK  126  A    between atoms: _304  and  _306
REMARK  127  A    between atoms: _306  and  _307
REMARK  128  A    between atoms: _306  and  _309
REMARK  129  A    between atoms: _309  and  _310
REMARK  130  A    between atoms: _310  and  _311
REMARK  131  A    between atoms: _314  and  _316
REMARK  132  A    between atoms: _316  and  _317
REMARK  133  A    between atoms: _316  and  _319
REMARK  134  A    between atoms: _319  and  _320
REMARK  135  A    between atoms: _323  and  _325
REMARK  136  A    between atoms: _325  and  _326
REMARK  137  A    between atoms: _325  and  _328
REMARK  138  A    between atoms: _328  and  _329
REMARK  139  A    between atoms: _332  and  _334
REMARK  140  A    between atoms: _334  and  _335
REMARK  141  A    between atoms: _334  and  _337
REMARK  142  A    between atoms: _337  and  _338
REMARK  143  A    between atoms: _341  and  _343
REMARK  144  A    between atoms: _343  and  _344
REMARK  145  A    between atoms: _346  and  _348
REMARK  146  A    between atoms: _348  and  _349
REMARK  147  A    between atoms: _348  and  _351
REMARK  148  A    between atoms: _351  and  _352
REMARK  149  A    between atoms: _355  and  _357
REMARK  150  A    between atoms: _357  and  _358
REMARK  151  A    between atoms: _357  and  _360
REMARK  152  A    between atoms: _363  and  _365
REMARK  153  A    between atoms: _365  and  _366
REMARK  154  A    between atoms: _365  and  _368
REMARK  155  A    between atoms: _368  and  _369
REMARK  156  A    between atoms: _372  and  _374
REMARK  157  A    between atoms: _374  and  _375
REMARK  158  A    between atoms: _374  and  _377
REMARK  159  A    between atoms: _380  and  _382
REMARK  160  A    between atoms: _382  and  _383
REMARK  161  A    between atoms: _382  and  _385
REMARK  162  A    between atoms: _385  and  _386
REMARK  163  A    between atoms: _386  and  _387
REMARK  164  A    between atoms: _392  and  _394
REMARK  165  A    between atoms: _394  and  _395
REMARK  166  A    between atoms: _394  and  _397
REMARK  167  A    between atoms: _397  and  _398
REMARK  168  A    between atoms: _401  and  _403
REMARK  169  A    between atoms: _403  and  _404
REMARK  170  A    between atoms: _403  and  _406
REMARK  171  A    between atoms: _406  and  _407
REMARK  172  A    between atoms: _410  and  _412
REMARK  173  A    between atoms: _412  and  _413
REMARK  174  A    between atoms: _412  and  _415
REMARK  175  A    between atoms: _415  and  _416
REMARK  176  A    between atoms: _416  and  _417
REMARK  177  A    between atoms: _419  and  _421
REMARK  178  A    between atoms: _421  and  _422
REMARK  179  A    between atoms: _421  and  _424
REMARK  180  A    between atoms: _424  and  _425
REMARK  181  A    between atoms: _425  and  _426
REMARK  182  A    between atoms: _429  and  _431
REMARK  183  A    between atoms: _431  and  _432
REMARK  184  A    between atoms: _431  and  _434
REMARK  185  A    between atoms: _434  and  _435
REMARK  186  A    between atoms: _438  and  _440
REMARK  187  A    between atoms: _440  and  _441
REMARK  188  A    between atoms: _440  and  _443
REMARK  189  A    between atoms: _443  and  _444
REMARK  190  A    between atoms: _447  and  _449
REMARK  191  A    between atoms: _449  and  _450
REMARK  192  A    between atoms: _449  and  _452
REMARK  193  A    between atoms: _452  and  _453
REMARK  194  A    between atoms: _453  and  _454
REMARK  195  A    between atoms: _454  and  _455
REMARK  196  A    between atoms: _455  and  _456
REMARK  197  A    between atoms: _460  and  _462
REMARK  198  A    between atoms: _462  and  _463
REMARK  199  A    between atoms: _462  and  _465
REMARK  200  A    between atoms: _465  and  _466
REMARK  201  A    between atoms: _468  and  _470
REMARK  202  A    between atoms: _470  and  _471
REMARK  203  A    between atoms: _470  and  _473
REMARK  204  A    between atoms: _473  and  _474
REMARK  205  A    between atoms: _479  and  _481
REMARK  206  A    between atoms: _481  and  _482
REMARK  207  A    between atoms: _481  and  _484
REMARK  208  A    between atoms: _484  and  _485
REMARK  209  A    between atoms: _488  and  _490
REMARK  210  A    between atoms: _490  and  _491
REMARK  211  A    between atoms: _490  and  _493
REMARK  212  A    between atoms: _493  and  _494
REMARK  213  A    between atoms: _497  and  _499
REMARK  214  A    between atoms: _499  and  _500
REMARK  215  A    between atoms: _499  and  _502
REMARK  216  A    between atoms: _502  and  _503
REMARK  217  A    between atoms: _503  and  _504
REMARK  218  A    between atoms: _504  and  _505
REMARK  219  A    between atoms: _505  and  _506
REMARK  220  A    between atoms: _510  and  _512
REMARK  221  A    between atoms: _512  and  _513
REMARK  222  A    between atoms: _512  and  _515
REMARK  223  A    between atoms: _515  and  _516
REMARK  224  A    between atoms: _519  and  _521
REMARK  225  A    between atoms: _521  and  _522
REMARK  226  A    between atoms: _521  and  _524
REMARK  227  A    between atoms: _526  and  _528
REMARK  228  A    between atoms: _528  and  _529
REMARK  229  A    between atoms: _528  and  _531
REMARK  230  A    between atoms: _531  and  _532
REMARK  231  A    between atoms: _535  and  _537
REMARK  232  A    between atoms: _537  and  _538
REMARK  233  A    between atoms: _537  and  _540
REMARK  234  A    between atoms: _540  and  _541
REMARK  235  A    between atoms: _547  and  _549
REMARK  236  A    between atoms: _549  and  _550
REMARK  237  A    between atoms: _552  and  _554
REMARK  238  A    between atoms: _554  and  _555
REMARK  239  A    between atoms: _554  and  _557
REMARK  240  A    between atoms: _557  and  _558
REMARK  241  A    between atoms: _561  and  _563
REMARK  242  A    between atoms: _563  and  _564
REMARK                            x       y       z     vdW  Elec       q    Type
REMARK                         _______ _______ _______ _____ _____    ______ ____
ROOT
ATOM      1  CA  LEU A   1      59.259  20.367   8.000  0.00  0.00    +0.133 C 
ENDROOT
BRANCH   1   2
ATOM      2  N   LEU A   1      59.003  21.738   8.384  0.00  0.00    -0.239 NA
ATOM      3  H   LEU A   1      58.050  22.142   8.280  0.00  0.00    +0.142 HD
ENDBRANCH   1   2
BRANCH   1   4
ATOM      4  C   LEU A   1      60.257  20.239   6.873  0.00  0.00    +0.224 C 
ATOM      5  O   LEU A   1      60.988  19.263   6.873  0.00  0.00    -0.287 OA
ENDBRANCH   1   4
BRANCH   1   6
ATOM      6  CB  LEU A   1      57.983  19.608   7.699  0.00  0.00    +0.025 C 
BRANCH   6   7
ATOM      7  CG  LEU A   1      57.059  19.378   8.904  0.00  0.00    +0.002 C 
ATOM      8  CD2 LEU A   1      57.794  18.652  10.057  0.00  0.00    +0.000 C 
ATOM      9  CD1 LEU A   1      55.840  18.585   8.475  0.00  0.00    +0.000 C 
ENDBRANCH   6   7
ENDBRANCH   1   6
TORSDOF 4
REMARK  Name = ../refined-set-2016/4qyy/4qyy_pocket.pdb
REMARK  242 active torsions:
REMARK  status: ('A' for Active; 'I' for Inactive)
REMARK    1  A    between atoms: _1  and  _3
REMARK    2  A    between atoms: _3  and  _4
REMARK    3  A    between atoms: _3  and  _6
REMARK    4  A    between atoms: _6  and  _7
REMARK    5  A    between atoms: _10  and  _12
REMARK    6  A    between atoms: _12  and  _13
REMARK    7  A    between atoms: _15  and  _17
REMARK    8  A    between atoms: _17  and  _18
REMARK    9  A    between atoms: _17  and  _20
REMARK   10  A    between atoms: _20  and  _21
REMARK   11  A    between atoms: _21  and  _22
REMARK   12  A    between atoms: _25  and  _27
REMARK   13  A    between atoms: _27  and  _28
REMARK   14  A    between atoms: _30  and  _32
REMARK   15  A    between atoms: _32  and  _33
REMARK   16  A    between atoms: _36  and  _38
REMARK   17  A    between atoms: _38  and  _39
REMARK   18  A    between atoms: _38  and  _41
REMARK   19  A    between atoms: _41  and  _42
REMARK   20  A    between atoms: _47  and  _48
REMARK   21  A    between atoms: _50  and  _52
REMARK   22  A    between atoms: _52  and  _53
REMARK   23  A    between atoms: _55  and  _57
REMARK   24  A    between atoms: _57  and  _58
REMARK   25  A    between atoms: _57  and  _60
REMARK   26  A    between atoms: _60  and  _61
REMARK   27  A    between atoms: _61  and  _62
REMARK   28  A    between atoms: _64  and  _66
REMARK   29  A    between atoms: _66  and  _67
REMARK   30  A    between atoms: _66  and  _69
REMARK   31  A    between atoms: _72  and  _74
REMARK   32  A    between atoms: _74  and  _75
REMARK   33  A    between atoms: _74  and  _77
REMARK   34  A    between atoms: _79  and  _81
REMARK   35  A    between atoms: _81  and  _82
REMARK   36  A    between atoms: _81  and  _84
REMARK   37  A    between atoms: _84  and  _85
REMARK   38  A    between atoms: _87  and  _89
REMARK   39  A    between atoms: _89  and  _90
REMARK   40  A    between atoms: _89  and  _92
REMARK   41  A    between atoms: _92  and  _93
REMARK   42  A    between atoms: _93  and  _94
REMARK   43  A    between atoms: _94  and  _95
REMARK   44  A    between atoms: _104  and  _106
REMARK   45  A    between atoms: _106  and  _107
REMARK   46  A    between atoms: _106  and  _109
REMARK   47  A    between atoms: _112  and  _114
REMARK   48  A    between atoms: _114  and  _115
REMARK   49  A    between atoms: _118  and  _120
REMARK   50  A    between atoms: _120  and  _121
REMARK   51  A    between atoms: _120  and  _123
REMARK   52  A    between atoms: _123  and  _124
REMARK   53  A    between atoms: _127  and  _129
REMARK   54  A    between atoms: _129  and  _130
REMARK   55  A    between atoms: _129  and  _132
REMARK   56  A    between atoms: _132  and  _133
REMARK   57  A    between atoms: _133  and  _134
REMARK   58  A    between atoms: _134  and  _135
REMARK   59  A    between atoms: _135  and  _136
REMARK   60  A    between atoms: _140  and  _142
REMARK   61  A    between atoms: _142  and  _143
REMARK   62  A    between atoms: _142  and  _145
REMARK   63  A    between atoms: _145  and  _146
REMARK   64  A    between atoms: _146  and  _147
REMARK   65  A    between atoms: _147  and  _148
REMARK   66  A    between atoms: _148  and  _149
REMARK   67  A    between atoms: _153  and  _155
REMARK   68  A    between atoms: _155  and  _156
REMARK   69  A    between atoms: _155  and  _158
REMARK   70  A    between atoms: _158  and  _159
REMARK   71  A    between atoms: _162  and  _164
REMARK   72  A    between atoms: _164  and  _165
REMARK   73  A    between atoms: _164  and  _167
REMARK   74  A    between atoms: _167  and  _168
REMARK   75  A    between atoms: _171  and  _172
REMARK   76  A    between atoms: _177  and  _179
REMARK   77  A    between atoms: _179  and  _180
REMARK   78  A    between atoms: _179  and  _182
REMARK   79  A    between atoms: _182  and  _183
REMARK   80  A    between atoms: _189  and  _191
REMARK   81  A    between atoms: _191  and  _192
REMARK   82  A    between atoms: _191  and  _194
REMARK   83  A    between atoms: _194  and  _195
REMARK   84  A    between atoms: _195  and  _196
REMARK   85  A    between atoms: _199  and  _201
REMARK   86  A    between atoms: _201  and  _202
REMARK   87  A    between atoms: _201  and  _204
REMARK   88  A    between atoms: _204  and  _205
REMARK   89  A    between atoms: _210  and  _212
REMARK   90  A    between atoms: _212  and  _213
REMARK   91  A    between atoms: _212  and  _215
REMARK   92  A    between atoms: _215  and  _216
REMARK   93  A    between atoms: _219  and  _221
REMARK   94  A    between atoms: _221  and  _222
REMARK   95  A    between atoms: _221  and  _224
REMARK   96  A    between atoms: _224  and  _225
REMARK   97  A    between atoms: _230  and  _231
REMARK   98  A    between atoms: _233  and  _235
REMARK   99  A    between atoms: _235  and  _236
REMARK  100  A    between atoms: _235  and  _238
REMARK  101  A    between atoms: _240  and  _242
REMARK  102  A    between atoms: _242  and  _243
REMARK  103  A    between atoms: _242  and  _245
REMARK  104  A    between atoms: _245  and  _246
REMARK  105  A    between atoms: _246  and  _247
REMARK  106  A    between atoms: _252  and  _254
REMARK  107  A    between atoms: _254  and  _255
REMARK  108  A    between atoms: _254  and  _257
REMARK  109  A    between atoms: _257  and  _258
REMARK  110  A    between atoms: _258  and  _259
REMARK  111  A    between atoms: _259  and  _260
REMARK  112  A    between atoms: _269  and  _271
REMARK  113  A    between atoms: _271  and  _272
REMARK  114  A    between atoms: _271  and  _274
REMARK  115  A    between atoms: _274  and  _275
REMARK  116  A    between atoms: _278  and  _280
REMARK  117  A    between atoms: _280  and  _281
REMARK  118  A    between atoms: _280  and  _283
REMARK  119  A    between atoms: _283  and  _284
REMARK  120  A    between atoms: _287  and  _289
REMARK  121  A    between atoms: _289  and  _290
REMARK  122  A    between atoms: _289  and  _292
REMARK  123  A    between atoms: _292  and  _293
REMARK  124  A    between atoms: _293  and  _294
REMARK  125  A    between atoms: _294  and  _295
REMARK  126  A    between atoms: _304  and  _306
REMARK  127  A    between atoms: _306  and  _307
REMARK  128  A    between atoms: _306  and  _309
REMARK  129  A    between atoms: _309  and  _310
REMARK  130  A    between atoms: _310  and  _311
REMARK  131  A    between atoms: _314  and  _316
REMARK  132  A    between atoms: _316  and  _317
REMARK  133  A    between atoms: _316  and  _319
REMARK  134  A    between atoms: _319  and  _320
REMARK  135  A    between atoms: _323  and  _325
REMARK  136  A    between atoms: _325  and  _326
REMARK  137  A    between atoms: _325  and  _328
REMARK  138  A    between atoms: _328  and  _329
REMARK  139  A    between atoms: _332  and  _334
REMARK  140  A    between atoms: _334  and  _335
REMARK  141  A    between atoms: _334  and  _337
REMARK  142  A    between atoms: _337  and  _338
REMARK  143  A    between atoms: _341  and  _343
REMARK  144  A    between atoms: _343  and  _344
REMARK  145  A    between atoms: _346  and  _348
REMARK  146  A    between atoms: _348  and  _349
REMARK  147  A    between atoms: _348  and  _351
REMARK  148  A    between atoms: _351  and  _352
REMARK  149  A    between atoms: _355  and  _357
REMARK  150  A    between atoms: _357  and  _358
REMARK  151  A    between atoms: _357  and  _360
REMARK  152  A    between atoms: _363  and  _365
REMARK  153  A    between atoms: _365  and  _366
REMARK  154  A    between atoms: _365  and  _368
REMARK  155  A    between atoms: _368  and  _369
REMARK  156  A    between atoms: _372  and  _374
REMARK  157  A    between atoms: _374  and  _375
REMARK  158  A    between atoms: _374  and  _377
REMARK  159  A    between atoms: _380  and  _382
REMARK  160  A    between atoms: _382  and  _383
REMARK  161  A    between atoms: _382  and  _385
REMARK  162  A    between atoms: _385  and  _386
REMARK  163  A    between atoms: _386  and  _387
REMARK  164  A    between atoms: _392  and  _394
REMARK  165  A    between atoms: _394  and  _395
REMARK  166  A    between atoms: _394  and  _397
REMARK  167  A    between atoms: _397  and  _398
REMARK  168  A    between atoms: _401  and  _403
REMARK  169  A    between atoms: _403  and  _404
REMARK  170  A    between atoms: _403  and  _406
REMARK  171  A    between atoms: _406  and  _407
REMARK  172  A    between atoms: _410  and  _412
REMARK  173  A    between atoms: _412  and  _413
REMARK  174  A    between atoms: _412  and  _415
REMARK  175  A    between atoms: _415  and  _416
REMARK  176  A    between atoms: _416  and  _417
REMARK  177  A    between atoms: _419  and  _421
REMARK  178  A    between atoms: _421  and  _422
REMARK  179  A    between atoms: _421  and  _424
REMARK  180  A    between atoms: _424  and  _425
REMARK  181  A    between atoms: _425  and  _426
REMARK  182  A    between atoms: _429  and  _431
REMARK  183  A    between atoms: _431  and  _432
REMARK  184  A    between atoms: _431  and  _434
REMARK  185  A    between atoms: _434  and  _435
REMARK  186  A    between atoms: _438  and  _440
REMARK  187  A    between atoms: _440  and  _441
REMARK  188  A    between atoms: _440  and  _443
REMARK  189  A    between atoms: _443  and  _444
REMARK  190  A    between atoms: _447  and  _449
REMARK  191  A    between atoms: _449  and  _450
REMARK  192  A    between atoms: _449  and  _452
REMARK  193  A    between atoms: _452  and  _453
REMARK  194  A    between atoms: _453  and  _454
REMARK  195  A    between atoms: _454  and  _455
REMARK  196  A    between atoms: _455  and  _456
REMARK  197  A    between atoms: _460  and  _462
REMARK  198  A    between atoms: _462  and  _463
REMARK  199  A    between atoms: _462  and  _465
REMARK  200  A    between atoms: _465  and  _466
REMARK  201  A    between atoms: _468  and  _470
REMARK  202  A    between atoms: _470  and  _471
REMARK  203  A    between atoms: _470  and  _473
REMARK  204  A    between atoms: _473  and  _474
REMARK  205  A    between atoms: _479  and  _481
REMARK  206  A    between atoms: _481  and  _482
REMARK  207  A    between atoms: _481  and  _484
REMARK  208  A    between atoms: _484  and  _485
REMARK  209  A    between atoms: _488  and  _490
REMARK  210  A    between atoms: _490  and  _491
REMARK  211  A    between atoms: _490  and  _493
REMARK  212  A    between atoms: _493  and  _494
REMARK  213  A    between atoms: _497  and  _499
REMARK  214  A    between atoms: _499  and  _500
REMARK  215  A    between atoms: _499  and  _502
REMARK  216  A    between atoms: _502  and  _503
REMARK  217  A    between atoms: _503  and  _504
REMARK  218  A    between atoms: _504  and  _505
REMARK  219  A    between atoms: _505  and  _506
REMARK  220  A    between atoms: _510  and  _512
REMARK  221  A    between atoms: _512  and  _513
REMARK  222  A    between atoms: _512  and  _515
REMARK  223  A    between atoms: _515  and  _516
REMARK  224  A    between atoms: _519  and  _521
REMARK  225  A    between atoms: _521  and  _522
REMARK  226  A    between atoms: _521  and  _524
REMARK  227  A    between atoms: _526  and  _528
REMARK  228  A    between atoms: _528  and  _529
REMARK  229  A    between atoms: _528  and  _531
REMARK  230  A    between atoms: _531  and  _532
REMARK  231  A    between atoms: _535  and  _537
REMARK  232  A    between atoms: _537  and  _538
REMARK  233  A    between atoms: _537  and  _540
REMARK  234  A    between atoms: _540  and  _541
REMARK  235  A    between atoms: _547  and  _549
REMARK  236  A    between atoms: _549  and  _550
REMARK  237  A    between atoms: _552  and  _554
REMARK  238  A    between atoms: _554  and  _555
REMARK  239  A    between atoms: _554  and  _557
REMARK  240  A    between atoms: _557  and  _558
REMARK  241  A    between atoms: _561  and  _563
REMARK  242  A    between atoms: _563  and  _564
REMARK                            x       y       z     vdW  Elec       q    Type
REMARK                         _______ _______ _______ _____ _____    ______ ____
ROOT
ATOM      1  CA  GLY A   2      59.180  14.751   6.632  0.00  0.00    +0.176 C 
ENDROOT
BRANCH   1   4
ATOM      2  C   ILE A   1      58.198  14.289   8.751  0.00  0.00    +0.238 C 
ATOM      3  O   ILE A   1      58.360  15.454   9.047  0.00  0.00    -0.274 OA
ATOM      4  N   GLY A   2      58.575  13.813   7.595  0.00  0.00    -0.296 N 
ATOM      5  H   GLY A   2      58.453  12.807   7.362  0.00  0.00    +0.150 HD
BRANCH   2   6
ATOM      6  CA  ILE A   1      57.558  13.344   9.759  0.00  0.00    +0.145 C 
BRANCH   6   7
ATOM      7  N   ILE A   1      58.059  13.657  11.108  0.00  0.00    -0.238 NA
ATOM      8  H   ILE A   1      57.409  14.004  11.842  0.00  0.00    +0.142 HD
ENDBRANCH   6   7
BRANCH   6   9
ATOM      9  CB  ILE A   1      56.012  13.441   9.711  0.00  0.00    +0.025 C 
ATOM     10  CG2 ILE A   1      55.539  14.897   9.773  0.00  0.00    +0.002 C 
BRANCH   9  11
ATOM     11  CG1 ILE A   1      55.456  12.749   8.442  0.00  0.00    +0.002 C 
ATOM     12  CD1 ILE A   1      55.640  11.302   8.382  0.00  0.00    +0.000 C 
ENDBRANCH   9  11
ENDBRANCH   6   9
ENDBRANCH   2   6
ENDBRANCH   1   4
BRANCH   1  13
ATOM     13  C   GLY A   2      58.118  15.228   5.658  0.00  0.00    +0.243 C 
ATOM     14  O   GLY A   2      56.936  14.922   5.821  0.00  0.00    -0.273 OA
ATOM     15  N   ILE A   3      58.525  16.077   4.737  0.00  0.00    -0.298 N 
ATOM     16  H   ILE A   3      59.468  16.503   4.839  0.00  0.00    +0.150 HD
BRANCH  15  17
ATOM     17  CA  ILE A   3      57.713  16.451   3.575  0.00  0.00    +0.137 C 
BRANCH  17  18
ATOM     18  CB  ILE A   3      57.429  17.955   3.418  0.00  0.00    +0.026 C 
ATOM     19  CG2 ILE A   3      56.844  18.205   2.021  0.00  0.00    +0.002 C 
BRANCH  18  20
ATOM     20  CG1 ILE A   3      56.453  18.409   4.500  0.00  0.00    +0.002 C 
ATOM     21  CD1 ILE A   3      56.126  19.886   4.533  0.00  0.00    +0.000 C 
ENDBRANCH  18  20
ENDBRANCH  17  18
BRANCH  17  22
ATOM     22  C   ILE A   3      58.519  15.897   2.394  0.00  0.00    +0.227 C 
ATOM     23  O   ILE A   3      59.685  16.260   2.259  0.00  0.00    -0.286 OA
ENDBRANCH  17  22
ENDBRANCH  15  17
ENDBRANCH   1  13
TORSDOF 10
REMARK  Name = ../refined-set-2016/4qyy/4qyy_pocket.pdb
REMARK  242 active torsions:
REMARK  status: ('A' for Active; 'I' for Inactive)
REMARK    1  A    between atoms: _1  and  _3
REMARK    2  A    between atoms: _3  and  _4
REMARK    3  A    between atoms: _3  and  _6
REMARK    4  A    between atoms: _6  and  _7
REMARK    5  A    between atoms: _10  and  _12
REMARK    6  A    between atoms: _12  and  _13
REMARK    7  A    between atoms: _15  and  _17
REMARK    8  A    between atoms: _17  and  _18
REMARK    9  A    between atoms: _17  and  _20
REMARK   10  A    between atoms: _20  and  _21
REMARK   11  A    between atoms: _21  and  _22
REMARK   12  A    between atoms: _25  and  _27
REMARK   13  A    between atoms: _27  and  _28
REMARK   14  A    between atoms: _30  and  _32
REMARK   15  A    between atoms: _32  and  _33
REMARK   16  A    between atoms: _36  and  _38
REMARK   17  A    between atoms: _38  and  _39
REMARK   18  A    between atoms: _38  and  _41
REMARK   19  A    between atoms: _41  and  _42
REMARK   20  A    between atoms: _47  and  _48
REMARK   21  A    between atoms: _50  and  _52
REMARK   22  A    between atoms: _52  and  _53
REMARK   23  A    between atoms: _55  and  _57
REMARK   24  A    between atoms: _57  and  _58
REMARK   25  A    between atoms: _57  and  _60
REMARK   26  A    between atoms: _60  and  _61
REMARK   27  A    between atoms: _61  and  _62
REMARK   28  A    between atoms: _64  and  _66
REMARK   29  A    between atoms: _66  and  _67
REMARK   30  A    between atoms: _66  and  _69
REMARK   31  A    between atoms: _72  and  _74
REMARK   32  A    between atoms: _74  and  _75
REMARK   33  A    between atoms: _74  and  _77
REMARK   34  A    between atoms: _79  and  _81
REMARK   35  A    between atoms: _81  and  _82
REMARK   36  A    between atoms: _81  and  _84
REMARK   37  A    between atoms: _84  and  _85
REMARK   38  A    between atoms: _87  and  _89
REMARK   39  A    between atoms: _89  and  _90
REMARK   40  A    between atoms: _89  and  _92
REMARK   41  A    between atoms: _92  and  _93
REMARK   42  A    between atoms: _93  and  _94
REMARK   43  A    between atoms: _94  and  _95
REMARK   44  A    between atoms: _104  and  _106
REMARK   45  A    between atoms: _106  and  _107
REMARK   46  A    between atoms: _106  and  _109
REMARK   47  A    between atoms: _112  and  _114
REMARK   48  A    between atoms: _114  and  _115
REMARK   49  A    between atoms: _118  and  _120
REMARK   50  A    between atoms: _120  and  _121
REMARK   51  A    between atoms: _120  and  _123
REMARK   52  A    between atoms: _123  and  _124
REMARK   53  A    between atoms: _127  and  _129
REMARK   54  A    between atoms: _129  and  _130
REMARK   55  A    between atoms: _129  and  _132
REMARK   56  A    between atoms: _132  and  _133
REMARK   57  A    between atoms: _133  and  _134
REMARK   58  A    between atoms: _134  and  _135
REMARK   59  A    between atoms: _135  and  _136
REMARK   60  A    between atoms: _140  and  _142
REMARK   61  A    between atoms: _142  and  _143
REMARK   62  A    between atoms: _142  and  _145
REMARK   63  A    between atoms: _145  and  _146
REMARK   64  A    between atoms: _146  and  _147
REMARK   65  A    between atoms: _147  and  _148
REMARK   66  A    between atoms: _148  and  _149
REMARK   67  A    between atoms: _153  and  _155
REMARK   68  A    between atoms: _155  and  _156
REMARK   69  A    between atoms: _155  and  _158
REMARK   70  A    between atoms: _158  and  _159
REMARK   71  A    between atoms: _162  and  _164
REMARK   72  A    between atoms: _164  and  _165
REMARK   73  A    between atoms: _164  and  _167
REMARK   74  A    between atoms: _167  and  _168
REMARK   75  A    between atoms: _171  and  _172
REMARK   76  A    between atoms: _177  and  _179
REMARK   77  A    between atoms: _179  and  _180
REMARK   78  A    between atoms: _179  and  _182
REMARK   79  A    between atoms: _182  and  _183
REMARK   80  A    between atoms: _189  and  _191
REMARK   81  A    between atoms: _191  and  _192
REMARK   82  A    between atoms: _191  and  _194
REMARK   83  A    between atoms: _194  and  _195
REMARK   84  A    between atoms: _195  and  _196
REMARK   85  A    between atoms: _199  and  _201
REMARK   86  A    between atoms: _201  and  _202
REMARK   87  A    between atoms: _201  and  _204
REMARK   88  A    between atoms: _204  and  _205
REMARK   89  A    between atoms: _210  and  _212
REMARK   90  A    between atoms: _212  and  _213
REMARK   91  A    between atoms: _212  and  _215
REMARK   92  A    between atoms: _215  and  _216
REMARK   93  A    between atoms: _219  and  _221
REMARK   94  A    between atoms: _221  and  _222
REMARK   95  A    between atoms: _221  and  _224
REMARK   96  A    between atoms: _224  and  _225
REMARK   97  A    between atoms: _230  and  _231
REMARK   98  A    between atoms: _233  and  _235
REMARK   99  A    between atoms: _235  and  _236
REMARK  100  A    between atoms: _235  and  _238
REMARK  101  A    between atoms: _240  and  _242
REMARK  102  A    between atoms: _242  and  _243
REMARK  103  A    between atoms: _242  and  _245
REMARK  104  A    between atoms: _245  and  _246
REMARK  105  A    between atoms: _246  and  _247
REMARK  106  A    between atoms: _252  and  _254
REMARK  107  A    between atoms: _254  and  _255
REMARK  108  A    between atoms: _254  and  _257
REMARK  109  A    between atoms: _257  and  _258
REMARK  110  A    between atoms: _258  and  _259
REMARK  111  A    between atoms: _259  and  _260
REMARK  112  A    between atoms: _269  and  _271
REMARK  113  A    between atoms: _271  and  _272
REMARK  114  A    between atoms: _271  and  _274
REMARK  115  A    between atoms: _274  and  _275
REMARK  116  A    between atoms: _278  and  _280
REMARK  117  A    between atoms: _280  and  _281
REMARK  118  A    between atoms: _280  and  _283
REMARK  119  A    between atoms: _283  and  _284
REMARK  120  A    between atoms: _287  and  _289
REMARK  121  A    between atoms: _289  and  _290
REMARK  122  A    between atoms: _289  and  _292
REMARK  123  A    between atoms: _292  and  _293
REMARK  124  A    between atoms: _293  and  _294
REMARK  125  A    between atoms: _294  and  _295
REMARK  126  A    between atoms: _304  and  _306
REMARK  127  A    between atoms: _306  and  _307
REMARK  128  A    between atoms: _306  and  _309
REMARK  129  A    between atoms: _309  and  _310
REMARK  130  A    between atoms: _310  and  _311
REMARK  131  A    between atoms: _314  and  _316
REMARK  132  A    between atoms: _316  and  _317
REMARK  133  A    between atoms: _316  and  _319
REMARK  134  A    between atoms: _319  and  _320
REMARK  135  A    between atoms: _323  and  _325
REMARK  136  A    between atoms: _325  and  _326
REMARK  137  A    between atoms: _325  and  _328
REMARK  138  A    between atoms: _328  and  _329
REMARK  139  A    between atoms: _332  and  _334
REMARK  140  A    between atoms: _334  and  _335
REMARK  141  A    between atoms: _334  and  _337
REMARK  142  A    between atoms: _337  and  _338
REMARK  143  A    between atoms: _341  and  _343
REMARK  144  A    between atoms: _343  and  _344
REMARK  145  A    between atoms: _346  and  _348
REMARK  146  A    between atoms: _348  and  _349
REMARK  147  A    between atoms: _348  and  _351
REMARK  148  A    between atoms: _351  and  _352
REMARK  149  A    between atoms: _355  and  _357
REMARK  150  A    between atoms: _357  and  _358
REMARK  151  A    between atoms: _357  and  _360
REMARK  152  A    between atoms: _363  and  _365
REMARK  153  A    between atoms: _365  and  _366
REMARK  154  A    between atoms: _365  and  _368
REMARK  155  A    between atoms: _368  and  _369
REMARK  156  A    between atoms: _372  and  _374
REMARK  157  A    between atoms: _374  and  _375
REMARK  158  A    between atoms: _374  and  _377
REMARK  159  A    between atoms: _380  and  _382
REMARK  160  A    between atoms: _382  and  _383
REMARK  161  A    between atoms: _382  and  _385
REMARK  162  A    between atoms: _385  and  _386
REMARK  163  A    between atoms: _386  and  _387
REMARK  164  A    between atoms: _392  and  _394
REMARK  165  A    between atoms: _394  and  _395
REMARK  166  A    between atoms: _394  and  _397
REMARK  167  A    between atoms: _397  and  _398
REMARK  168  A    between atoms: _401  and  _403
REMARK  169  A    between atoms: _403  and  _404
REMARK  170  A    between atoms: _403  and  _406
REMARK  171  A    between atoms: _406  and  _407
REMARK  172  A    between atoms: _410  and  _412
REMARK  173  A    between atoms: _412  and  _413
REMARK  174  A    between atoms: _412  and  _415
REMARK  175  A    between atoms: _415  and  _416
REMARK  176  A    between atoms: _416  and  _417
REMARK  177  A    between atoms: _419  and  _421
REMARK  178  A    between atoms: _421  and  _422
REMARK  179  A    between atoms: _421  and  _424
REMARK  180  A    between atoms: _424  and  _425
REMARK  181  A    between atoms: _425  and  _426
REMARK  182  A    between atoms: _429  and  _431
REMARK  183  A    between atoms: _431  and  _432
REMARK  184  A    between atoms: _431  and  _434
REMARK  185  A    between atoms: _434  and  _435
REMARK  186  A    between atoms: _438  and  _440
REMARK  187  A    between atoms: _440  and  _441
REMARK  188  A    between atoms: _440  and  _443
REMARK  189  A    between atoms: _443  and  _444
REMARK  190  A    between atoms: _447  and  _449
REMARK  191  A    between atoms: _449  and  _450
REMARK  192  A    between atoms: _449  and  _452
REMARK  193  A    between atoms: _452  and  _453
REMARK  194  A    between atoms: _453  and  _454
REMARK  195  A    between atoms: _454  and  _455
REMARK  196  A    between atoms: _455  and  _456
REMARK  197  A    between atoms: _460  and  _462
REMARK  198  A    between atoms: _462  and  _463
REMARK  199  A    between atoms: _462  and  _465
REMARK  200  A    between atoms: _465  and  _466
REMARK  201  A    between atoms: _468  and  _470
REMARK  202  A    between atoms: _470  and  _471
REMARK  203  A    between atoms: _470  and  _473
REMARK  204  A    between atoms: _473  and  _474
REMARK  205  A    between atoms: _479  and  _481
REMARK  206  A    between atoms: _481  and  _482
REMARK  207  A    between atoms: _481  and  _484
REMARK  208  A    between atoms: _484  and  _485
REMARK  209  A    between atoms: _488  and  _490
REMARK  210  A    between atoms: _490  and  _491
REMARK  211  A    between atoms: _490  and  _493
REMARK  212  A    between atoms: _493  and  _494
REMARK  213  A    between atoms: _497  and  _499
REMARK  214  A    between atoms: _499  and  _500
REMARK  215  A    between atoms: _499  and  _502
REMARK  216  A    between atoms: _502  and  _503
REMARK  217  A    between atoms: _503  and  _504
REMARK  218  A    between atoms: _504  and  _505
REMARK  219  A    between atoms: _505  and  _506
REMARK  220  A    between atoms: _510  and  _512
REMARK  221  A    between atoms: _512  and  _513
REMARK  222  A    between atoms: _512  and  _515
REMARK  223  A    between atoms: _515  and  _516
REMARK  224  A    between atoms: _519  and  _521
REMARK  225  A    between atoms: _521  and  _522
REMARK  226  A    between atoms: _521  and  _524
REMARK  227  A    between atoms: _526  and  _528
REMARK  228  A    between atoms: _528  and  _529
REMARK  229  A    between atoms: _528  and  _531
REMARK  230  A    between atoms: _531  and  _532
REMARK  231  A    between atoms: _535  and  _537
REMARK  232  A    between atoms: _537  and  _538
REMARK  233  A    between atoms: _537  and  _540
REMARK  234  A    between atoms: _540  and  _541
REMARK  235  A    between atoms: _547  and  _549
REMARK  236  A    between atoms: _549  and  _550
REMARK  237  A    between atoms: _552  and  _554
REMARK  238  A    between atoms: _554  and  _555
REMARK  239  A    between atoms: _554  and  _557
REMARK  240  A    between atoms: _557  and  _558
REMARK  241  A    between atoms: _561  and  _563
REMARK  242  A    between atoms: _563  and  _564
REMARK                            x       y       z     vdW  Elec       q    Type
REMARK                         _______ _______ _______ _____ _____    ______ ____
ROOT
ATOM      1  CA  VAL A   1      48.392  22.813  -1.789  0.00  0.00    +0.133 C 
ENDROOT
BRANCH   1   2
ATOM      2  CB  VAL A   1      49.324  23.667  -0.902  0.00  0.00    +0.023 C 
ATOM      3  CG2 VAL A   1      50.750  23.127  -0.928  0.00  0.00    +0.002 C 
ATOM      4  CG1 VAL A   1      49.308  25.127  -1.353  0.00  0.00    +0.002 C 
ENDBRANCH   1   2
BRANCH   1   5
ATOM      5  N   VAL A   1      47.019  23.308  -1.855  0.00  0.00    -0.239 NA
ATOM      6  H   VAL A   1      46.377  23.086  -1.067  0.00  0.00    +0.142 HD
ENDBRANCH   1   5
BRANCH   1   7
ATOM      7  C   VAL A   1      48.282  21.385  -1.267  0.00  0.00    +0.224 C 
ATOM      8  O   VAL A   1      47.545  21.156  -0.306  0.00  0.00    -0.287 OA
ENDBRANCH   1   7
TORSDOF 3
REMARK  Name = ../refined-set-2016/4qyy/4qyy_pocket.pdb
REMARK  242 active torsions:
REMARK  status: ('A' for Active; 'I' for Inactive)
REMARK    1  A    between atoms: _1  and  _3
REMARK    2  A    between atoms: _3  and  _4
REMARK    3  A    between atoms: _3  and  _6
REMARK    4  A    between atoms: _6  and  _7
REMARK    5  A    between atoms: _10  and  _12
REMARK    6  A    between atoms: _12  and  _13
REMARK    7  A    between atoms: _15  and  _17
REMARK    8  A    between atoms: _17  and  _18
REMARK    9  A    between atoms: _17  and  _20
REMARK   10  A    between atoms: _20  and  _21
REMARK   11  A    between atoms: _21  and  _22
REMARK   12  A    between atoms: _25  and  _27
REMARK   13  A    between atoms: _27  and  _28
REMARK   14  A    between atoms: _30  and  _32
REMARK   15  A    between atoms: _32  and  _33
REMARK   16  A    between atoms: _36  and  _38
REMARK   17  A    between atoms: _38  and  _39
REMARK   18  A    between atoms: _38  and  _41
REMARK   19  A    between atoms: _41  and  _42
REMARK   20  A    between atoms: _47  and  _48
REMARK   21  A    between atoms: _50  and  _52
REMARK   22  A    between atoms: _52  and  _53
REMARK   23  A    between atoms: _55  and  _57
REMARK   24  A    between atoms: _57  and  _58
REMARK   25  A    between atoms: _57  and  _60
REMARK   26  A    between atoms: _60  and  _61
REMARK   27  A    between atoms: _61  and  _62
REMARK   28  A    between atoms: _64  and  _66
REMARK   29  A    between atoms: _66  and  _67
REMARK   30  A    between atoms: _66  and  _69
REMARK   31  A    between atoms: _72  and  _74
REMARK   32  A    between atoms: _74  and  _75
REMARK   33  A    between atoms: _74  and  _77
REMARK   34  A    between atoms: _79  and  _81
REMARK   35  A    between atoms: _81  and  _82
REMARK   36  A    between atoms: _81  and  _84
REMARK   37  A    between atoms: _84  and  _85
REMARK   38  A    between atoms: _87  and  _89
REMARK   39  A    between atoms: _89  and  _90
REMARK   40  A    between atoms: _89  and  _92
REMARK   41  A    between atoms: _92  and  _93
REMARK   42  A    between atoms: _93  and  _94
REMARK   43  A    between atoms: _94  and  _95
REMARK   44  A    between atoms: _104  and  _106
REMARK   45  A    between atoms: _106  and  _107
REMARK   46  A    between atoms: _106  and  _109
REMARK   47  A    between atoms: _112  and  _114
REMARK   48  A    between atoms: _114  and  _115
REMARK   49  A    between atoms: _118  and  _120
REMARK   50  A    between atoms: _120  and  _121
REMARK   51  A    between atoms: _120  and  _123
REMARK   52  A    between atoms: _123  and  _124
REMARK   53  A    between atoms: _127  and  _129
REMARK   54  A    between atoms: _129  and  _130
REMARK   55  A    between atoms: _129  and  _132
REMARK   56  A    between atoms: _132  and  _133
REMARK   57  A    between atoms: _133  and  _134
REMARK   58  A    between atoms: _134  and  _135
REMARK   59  A    between atoms: _135  and  _136
REMARK   60  A    between atoms: _140  and  _142
REMARK   61  A    between atoms: _142  and  _143
REMARK   62  A    between atoms: _142  and  _145
REMARK   63  A    between atoms: _145  and  _146
REMARK   64  A    between atoms: _146  and  _147
REMARK   65  A    between atoms: _147  and  _148
REMARK   66  A    between atoms: _148  and  _149
REMARK   67  A    between atoms: _153  and  _155
REMARK   68  A    between atoms: _155  and  _156
REMARK   69  A    between atoms: _155  and  _158
REMARK   70  A    between atoms: _158  and  _159
REMARK   71  A    between atoms: _162  and  _164
REMARK   72  A    between atoms: _164  and  _165
REMARK   73  A    between atoms: _164  and  _167
REMARK   74  A    between atoms: _167  and  _168
REMARK   75  A    between atoms: _171  and  _172
REMARK   76  A    between atoms: _177  and  _179
REMARK   77  A    between atoms: _179  and  _180
REMARK   78  A    between atoms: _179  and  _182
REMARK   79  A    between atoms: _182  and  _183
REMARK   80  A    between atoms: _189  and  _191
REMARK   81  A    between atoms: _191  and  _192
REMARK   82  A    between atoms: _191  and  _194
REMARK   83  A    between atoms: _194  and  _195
REMARK   84  A    between atoms: _195  and  _196
REMARK   85  A    between atoms: _199  and  _201
REMARK   86  A    between atoms: _201  and  _202
REMARK   87  A    between atoms: _201  and  _204
REMARK   88  A    between atoms: _204  and  _205
REMARK   89  A    between atoms: _210  and  _212
REMARK   90  A    between atoms: _212  and  _213
REMARK   91  A    between atoms: _212  and  _215
REMARK   92  A    between atoms: _215  and  _216
REMARK   93  A    between atoms: _219  and  _221
REMARK   94  A    between atoms: _221  and  _222
REMARK   95  A    between atoms: _221  and  _224
REMARK   96  A    between atoms: _224  and  _225
REMARK   97  A    between atoms: _230  and  _231
REMARK   98  A    between atoms: _233  and  _235
REMARK   99  A    between atoms: _235  and  _236
REMARK  100  A    between atoms: _235  and  _238
REMARK  101  A    between atoms: _240  and  _242
REMARK  102  A    between atoms: _242  and  _243
REMARK  103  A    between atoms: _242  and  _245
REMARK  104  A    between atoms: _245  and  _246
REMARK  105  A    between atoms: _246  and  _247
REMARK  106  A    between atoms: _252  and  _254
REMARK  107  A    between atoms: _254  and  _255
REMARK  108  A    between atoms: _254  and  _257
REMARK  109  A    between atoms: _257  and  _258
REMARK  110  A    between atoms: _258  and  _259
REMARK  111  A    between atoms: _259  and  _260
REMARK  112  A    between atoms: _269  and  _271
REMARK  113  A    between atoms: _271  and  _272
REMARK  114  A    between atoms: _271  and  _274
REMARK  115  A    between atoms: _274  and  _275
REMARK  116  A    between atoms: _278  and  _280
REMARK  117  A    between atoms: _280  and  _281
REMARK  118  A    between atoms: _280  and  _283
REMARK  119  A    between atoms: _283  and  _284
REMARK  120  A    between atoms: _287  and  _289
REMARK  121  A    between atoms: _289  and  _290
REMARK  122  A    between atoms: _289  and  _292
REMARK  123  A    between atoms: _292  and  _293
REMARK  124  A    between atoms: _293  and  _294
REMARK  125  A    between atoms: _294  and  _295
REMARK  126  A    between atoms: _304  and  _306
REMARK  127  A    between atoms: _306  and  _307
REMARK  128  A    between atoms: _306  and  _309
REMARK  129  A    between atoms: _309  and  _310
REMARK  130  A    between atoms: _310  and  _311
REMARK  131  A    between atoms: _314  and  _316
REMARK  132  A    between atoms: _316  and  _317
REMARK  133  A    between atoms: _316  and  _319
REMARK  134  A    between atoms: _319  and  _320
REMARK  135  A    between atoms: _323  and  _325
REMARK  136  A    between atoms: _325  and  _326
REMARK  137  A    between atoms: _325  and  _328
REMARK  138  A    between atoms: _328  and  _329
REMARK  139  A    between atoms: _332  and  _334
REMARK  140  A    between atoms: _334  and  _335
REMARK  141  A    between atoms: _334  and  _337
REMARK  142  A    between atoms: _337  and  _338
REMARK  143  A    between atoms: _341  and  _343
REMARK  144  A    between atoms: _343  and  _344
REMARK  145  A    between atoms: _346  and  _348
REMARK  146  A    between atoms: _348  and  _349
REMARK  147  A    between atoms: _348  and  _351
REMARK  148  A    between atoms: _351  and  _352
REMARK  149  A    between atoms: _355  and  _357
REMARK  150  A    between atoms: _357  and  _358
REMARK  151  A    between atoms: _357  and  _360
REMARK  152  A    between atoms: _363  and  _365
REMARK  153  A    between atoms: _365  and  _366
REMARK  154  A    between atoms: _365  and  _368
REMARK  155  A    between atoms: _368  and  _369
REMARK  156  A    between atoms: _372  and  _374
REMARK  157  A    between atoms: _374  and  _375
REMARK  158  A    between atoms: _374  and  _377
REMARK  159  A    between atoms: _380  and  _382
REMARK  160  A    between atoms: _382  and  _383
REMARK  161  A    between atoms: _382  and  _385
REMARK  162  A    between atoms: _385  and  _386
REMARK  163  A    between atoms: _386  and  _387
REMARK  164  A    between atoms: _392  and  _394
REMARK  165  A    between atoms: _394  and  _395
REMARK  166  A    between atoms: _394  and  _397
REMARK  167  A    between atoms: _397  and  _398
REMARK  168  A    between atoms: _401  and  _403
REMARK  169  A    between atoms: _403  and  _404
REMARK  170  A    between atoms: _403  and  _406
REMARK  171  A    between atoms: _406  and  _407
REMARK  172  A    between atoms: _410  and  _412
REMARK  173  A    between atoms: _412  and  _413
REMARK  174  A    between atoms: _412  and  _415
REMARK  175  A    between atoms: _415  and  _416
REMARK  176  A    between atoms: _416  and  _417
REMARK  177  A    between atoms: _419  and  _421
REMARK  178  A    between atoms: _421  and  _422
REMARK  179  A    between atoms: _421  and  _424
REMARK  180  A    between atoms: _424  and  _425
REMARK  181  A    between atoms: _425  and  _426
REMARK  182  A    between atoms: _429  and  _431
REMARK  183  A    between atoms: _431  and  _432
REMARK  184  A    between atoms: _431  and  _434
REMARK  185  A    between atoms: _434  and  _435
REMARK  186  A    between atoms: _438  and  _440
REMARK  187  A    between atoms: _440  and  _441
REMARK  188  A    between atoms: _440  and  _443
REMARK  189  A    between atoms: _443  and  _444
REMARK  190  A    between atoms: _447  and  _449
REMARK  191  A    between atoms: _449  and  _450
REMARK  192  A    between atoms: _449  and  _452
REMARK  193  A    between atoms: _452  and  _453
REMARK  194  A    between atoms: _453  and  _454
REMARK  195  A    between atoms: _454  and  _455
REMARK  196  A    between atoms: _455  and  _456
REMARK  197  A    between atoms: _460  and  _462
REMARK  198  A    between atoms: _462  and  _463
REMARK  199  A    between atoms: _462  and  _465
REMARK  200  A    between atoms: _465  and  _466
REMARK  201  A    between atoms: _468  and  _470
REMARK  202  A    between atoms: _470  and  _471
REMARK  203  A    between atoms: _470  and  _473
REMARK  204  A    between atoms: _473  and  _474
REMARK  205  A    between atoms: _479  and  _481
REMARK  206  A    between atoms: _481  and  _482
REMARK  207  A    between atoms: _481  and  _484
REMARK  208  A    between atoms: _484  and  _485
REMARK  209  A    between atoms: _488  and  _490
REMARK  210  A    between atoms: _490  and  _491
REMARK  211  A    between atoms: _490  and  _493
REMARK  212  A    between atoms: _493  and  _494
REMARK  213  A    between atoms: _497  and  _499
REMARK  214  A    between atoms: _499  and  _500
REMARK  215  A    between atoms: _499  and  _502
REMARK  216  A    between atoms: _502  and  _503
REMARK  217  A    between atoms: _503  and  _504
REMARK  218  A    between atoms: _504  and  _505
REMARK  219  A    between atoms: _505  and  _506
REMARK  220  A    between atoms: _510  and  _512
REMARK  221  A    between atoms: _512  and  _513
REMARK  222  A    between atoms: _512  and  _515
REMARK  223  A    between atoms: _515  and  _516
REMARK  224  A    between atoms: _519  and  _521
REMARK  225  A    between atoms: _521  and  _522
REMARK  226  A    between atoms: _521  and  _524
REMARK  227  A    between atoms: _526  and  _528
REMARK  228  A    between atoms: _528  and  _529
REMARK  229  A    between atoms: _528  and  _531
REMARK  230  A    between atoms: _531  and  _532
REMARK  231  A    between atoms: _535  and  _537
REMARK  232  A    between atoms: _537  and  _538
REMARK  233  A    between atoms: _537  and  _540
REMARK  234  A    between atoms: _540  and  _541
REMARK  235  A    between atoms: _547  and  _549
REMARK  236  A    between atoms: _549  and  _550
REMARK  237  A    between atoms: _552  and  _554
REMARK  238  A    between atoms: _554  and  _555
REMARK  239  A    between atoms: _554  and  _557
REMARK  240  A    between atoms: _557  and  _558
REMARK  241  A    between atoms: _561  and  _563
REMARK  242  A    between atoms: _563  and  _564
REMARK                            x       y       z     vdW  Elec       q    Type
REMARK                         _______ _______ _______ _____ _____    ______ ____
ROOT
ATOM      1  CA  LEU A   5      52.521   6.872   5.096  0.00  0.00    +0.149 C 
ENDROOT
BRANCH   1   2
ATOM      2  C   LEU A   5      52.774   6.153   6.416  0.00  0.00    +0.241 C 
ATOM      3  N   MET A   6      51.970   6.439   7.451  0.00  0.00    -0.297 N 
ATOM      4  H   MET A   6      51.233   7.161   7.316  0.00  0.00    +0.150 HD
ATOM      5  O   LEU A   5      53.671   5.313   6.478  0.00  0.00    -0.273 OA
BRANCH   3   6
ATOM      6  CA  MET A   6      52.073   5.790   8.761  0.00  0.00    +0.149 C 
BRANCH   6   7
ATOM      7  C   MET A   6      50.770   5.027   9.022  0.00  0.00    +0.241 C 
ATOM      8  N   GLU A   7      50.835   3.918   9.758  0.00  0.00    -0.297 N 
ATOM      9  H   GLU A   7      51.743   3.653  10.189  0.00  0.00    +0.150 HD
ATOM     10  O   MET A   6      49.715   5.446   8.554  0.00  0.00    -0.273 OA
BRANCH   8  11
ATOM     11  CA  GLU A   7      49.664   3.058   9.980  0.00  0.00    +0.149 C 
BRANCH  11  12
ATOM     12  C   GLU A   7      48.627   3.575  10.937  0.00  0.00    +0.241 C 
ATOM     13  N   THR A   8      49.040   4.281  11.999  0.00  0.00    -0.295 N 
ATOM     14  H   THR A   8      50.053   4.482  12.120  0.00  0.00    +0.150 HD
ATOM     15  O   GLU A   7      47.440   3.287  10.753  0.00  0.00    -0.273 OA
BRANCH  13  16
ATOM     16  CA  THR A   8      48.096   4.765  12.976  0.00  0.00    +0.176 C 
BRANCH  16  17
ATOM     17  C   THR A   8      48.738   5.911  13.762  0.00  0.00    +0.243 C 
ATOM     18  N   ASP A   9      48.101   6.323  14.835  0.00  0.00    -0.297 N 
ATOM     19  H   ASP A   9      47.183   5.896  15.074  0.00  0.00    +0.150 HD
ATOM     20  O   THR A   8      49.772   6.437  13.357  0.00  0.00    -0.273 OA
BRANCH  18  21
ATOM     21  CA  ASP A   9      48.648   7.368  15.704  0.00  0.00    +0.148 C 
BRANCH  21  22
ATOM     22  C   ASP A   9      48.389   6.939  17.152  0.00  0.00    +0.227 C 
ATOM     23  O   ASP A   9      47.579   6.032  17.406  0.00  0.00    -0.286 OA
ENDBRANCH  21  22
BRANCH  21  24
ATOM     24  CB  ASP A   9      48.118   8.763  15.338  0.00  0.00    +0.142 C 
BRANCH  24  25
ATOM     25  CG  ASP A   9      46.642   8.923  15.542  0.00  0.00    +0.367 C 
ATOM     26  OD2 ASP A   9      46.163   8.593  16.639  0.00  0.00    -0.246 OA
ATOM     27  OD1 ASP A   9      45.960   9.379  14.599  0.00  0.00    -0.246 OA
ENDBRANCH  24  25
ENDBRANCH  21  24
ENDBRANCH  18  21
ENDBRANCH  16  17
BRANCH  16  28
ATOM     28  CB  THR A   8      47.644   3.591  13.887  0.00  0.00    +0.137 C 
ATOM     29  CG2 THR A   8      48.752   3.101  14.827  0.00  0.00    +0.034 C 
BRANCH  28  30
ATOM     30  OG1 THR A   8      46.516   4.012  14.654  0.00  0.00    -0.382 OA
ATOM     31  HG1 THR A   8      46.220   3.270  15.238  0.00  0.00    +0.210 HD
ENDBRANCH  28  30
ENDBRANCH  16  28
ENDBRANCH  13  16
ENDBRANCH  11  12
BRANCH  11  32
ATOM     32  CB  GLU A   7      50.088   1.657  10.424  0.00  0.00    +0.041 C 
BRANCH  32  33
ATOM     33  CG  GLU A   7      50.755   0.891   9.303  0.00  0.00    +0.116 C 
BRANCH  33  34
ATOM     34  CD  GLU A   7      51.264  -0.473   9.710  0.00  0.00    +0.365 C 
ATOM     35  OE2 GLU A   7      50.470  -1.262  10.273  0.00  0.00    -0.246 OA
ATOM     36  OE1 GLU A   7      52.459  -0.754   9.466  0.00  0.00    -0.246 OA
ENDBRANCH  33  34
ENDBRANCH  32  33
ENDBRANCH  11  32
ENDBRANCH   8  11
ENDBRANCH   6   7
BRANCH   6  37
ATOM     37  CB  MET A   6      52.342   6.826   9.860  0.00  0.00    +0.041 C 
BRANCH  37  38
ATOM     38  CG  MET A   6      53.667   7.570   9.684  0.00  0.00    +0.060 C 
BRANCH  38  39
ATOM     39  SD  MET A   6      55.136   6.513   9.833  0.00  0.00    -0.139 S 
ATOM     40  CE  MET A   6      55.397   6.566  11.656  0.00  0.00    +0.069 C 
ENDBRANCH  38  39
ENDBRANCH  37  38
ENDBRANCH   6  37
ENDBRANCH   3   6
ENDBRANCH   1   2
BRANCH   1  43
ATOM     41  C   ASP A   4      54.278   8.579   5.063  0.00  0.00    +0.241 C 
ATOM     42  O   ASP A   4      53.734   9.267   5.931  0.00  0.00    -0.273 OA
ATOM     43  N   LEU A   5      53.761   7.440   4.597  0.00  0.00    -0.297 N 
ATOM     44  H   LEU A   5      54.269   6.936   3.842  0.00  0.00    +0.150 HD
BRANCH  41  45
ATOM     45  CA  ASP A   4      55.576   9.049   4.457  0.00  0.00    +0.160 C 
BRANCH  45  47
ATOM     46  C   GLN A   3      54.575  11.067   3.507  0.00  0.00    +0.241 C 
ATOM     47  N   ASP A   4      55.512  10.503   4.275  0.00  0.00    -0.297 N 
ATOM     48  H   ASP A   4      56.210  11.107   4.753  0.00  0.00    +0.150 HD
ATOM     49  O   GLN A   3      53.754  10.407   2.888  0.00  0.00    -0.273 OA
BRANCH  46  50
ATOM     50  CA  GLN A   3      54.555  12.588   3.439  0.00  0.00    +0.149 C 
BRANCH  50  52
ATOM     51  C   VAL A   2      54.103  14.067   1.520  0.00  0.00    +0.241 C 
ATOM     52  N   GLN A   3      53.745  13.052   2.312  0.00  0.00    -0.297 N 
ATOM     53  H   GLN A   3      52.846  12.567   2.118  0.00  0.00    +0.150 HD
ATOM     54  O   VAL A   2      55.153  14.677   1.635  0.00  0.00    -0.273 OA
BRANCH  51  55
ATOM     55  CA  VAL A   2      53.134  14.446   0.411  0.00  0.00    +0.148 C 
BRANCH  55  58
ATOM     56  C   ILE A   1      51.786  16.407   1.015  0.00  0.00    +0.238 C 
ATOM     57  O   ILE A   1      50.926  15.742   1.593  0.00  0.00    -0.274 OA
ATOM     58  N   VAL A   2      52.875  15.880   0.470  0.00  0.00    -0.297 N 
ATOM     59  H   VAL A   2      53.582  16.525   0.063  0.00  0.00    +0.150 HD
BRANCH  56  60
ATOM     60  CA  ILE A   1      51.649  17.921   0.921  0.00  0.00    +0.145 C 
BRANCH  60  61
ATOM     61  N   ILE A   1      50.371  18.241   0.283  0.00  0.00    -0.238 NA
ATOM     62  H   ILE A   1      49.488  18.078   0.807  0.00  0.00    +0.142 HD
ENDBRANCH  60  61
BRANCH  60  63
ATOM     63  CB  ILE A   1      51.746  18.634   2.267  0.00  0.00    +0.025 C 
ATOM     64  CG2 ILE A   1      53.061  18.274   2.972  0.00  0.00    +0.002 C 
BRANCH  63  65
ATOM     65  CG1 ILE A   1      51.640  20.160   2.050  0.00  0.00    +0.002 C 
ATOM     66  CD1 ILE A   1      51.612  20.972   3.310  0.00  0.00    +0.000 C 
ENDBRANCH  63  65
ENDBRANCH  60  63
ENDBRANCH  56  60
ENDBRANCH  55  58
BRANCH  55  67
ATOM     67  CB  VAL A   2      53.695  14.007  -0.943  0.00  0.00    +0.027 C 
ATOM     68  CG2 VAL A   2      53.769  12.488  -1.013  0.00  0.00    +0.002 C 
ATOM     69  CG1 VAL A   2      52.861  14.585  -2.097  0.00  0.00    +0.002 C 
ENDBRANCH  55  67
ENDBRANCH  51  55
ENDBRANCH  50  52
BRANCH  50  70
ATOM     70  CB  GLN A   3      53.979  13.165   4.733  0.00  0.00    +0.039 C 
BRANCH  70  71
ATOM     71  CG  GLN A   3      53.855  14.672   4.686  0.00  0.00    +0.087 C 
BRANCH  71  72
ATOM     72  CD  GLN A   3      53.320  15.231   5.941  0.00  0.00    +0.219 C 
ATOM     73  NE2 GLN A   3      54.156  15.897   6.730  0.00  0.00    -0.329 N 
ATOM     74 HE21 GLN A   3      53.795  16.391   7.571  0.00  0.00    +0.145 HD
ATOM     75 HE22 GLN A   3      55.171  15.924   6.507  0.00  0.00    +0.145 HD
ATOM     76  OE1 GLN A   3      52.127  15.172   6.163  0.00  0.00    -0.275 OA
ENDBRANCH  71  72
ENDBRANCH  70  71
ENDBRANCH  50  70
ENDBRANCH  46  50
ENDBRANCH  45  47
BRANCH  45  77
ATOM     77  CB  ASP A   4      56.711   8.655   5.409  0.00  0.00    +0.143 C 
BRANCH  77  78
ATOM     78  CG  ASP A   4      58.112   8.883   4.895  0.00  0.00    +0.367 C 
ATOM     79  OD2 ASP A   4      59.045   8.911   5.727  0.00  0.00    -0.246 OA
ATOM     80  OD1 ASP A   4      58.285   9.016   3.652  0.00  0.00    -0.246 OA
ENDBRANCH  77  78
ENDBRANCH  45  77
ENDBRANCH  41  45
ENDBRANCH   1  43
BRANCH   1  81
ATOM     81  CB  LEU A   5      51.941   5.855   4.087  0.00  0.00    +0.029 C 
BRANCH  81  82
ATOM     82  CG  LEU A   5      50.587   5.244   4.469  0.00  0.00    +0.002 C 
ATOM     83  CD2 LEU A   5      49.520   6.313   4.641  0.00  0.00    +0.000 C 
ATOM     84  CD1 LEU A   5      50.152   4.227   3.446  0.00  0.00    +0.000 C 
ENDBRANCH  81  82
ENDBRANCH   1  81
TORSDOF 38
REMARK  Name = ../refined-set-2016/4qyy/4qyy_pocket.pdb
REMARK  242 active torsions:
REMARK  status: ('A' for Active; 'I' for Inactive)
REMARK    1  A    between atoms: _1  and  _3
REMARK    2  A    between atoms: _3  and  _4
REMARK    3  A    between atoms: _3  and  _6
REMARK    4  A    between atoms: _6  and  _7
REMARK    5  A    between atoms: _10  and  _12
REMARK    6  A    between atoms: _12  and  _13
REMARK    7  A    between atoms: _15  and  _17
REMARK    8  A    between atoms: _17  and  _18
REMARK    9  A    between atoms: _17  and  _20
REMARK   10  A    between atoms: _20  and  _21
REMARK   11  A    between atoms: _21  and  _22
REMARK   12  A    between atoms: _25  and  _27
REMARK   13  A    between atoms: _27  and  _28
REMARK   14  A    between atoms: _30  and  _32
REMARK   15  A    between atoms: _32  and  _33
REMARK   16  A    between atoms: _36  and  _38
REMARK   17  A    between atoms: _38  and  _39
REMARK   18  A    between atoms: _38  and  _41
REMARK   19  A    between atoms: _41  and  _42
REMARK   20  A    between atoms: _47  and  _48
REMARK   21  A    between atoms: _50  and  _52
REMARK   22  A    between atoms: _52  and  _53
REMARK   23  A    between atoms: _55  and  _57
REMARK   24  A    between atoms: _57  and  _58
REMARK   25  A    between atoms: _57  and  _60
REMARK   26  A    between atoms: _60  and  _61
REMARK   27  A    between atoms: _61  and  _62
REMARK   28  A    between atoms: _64  and  _66
REMARK   29  A    between atoms: _66  and  _67
REMARK   30  A    between atoms: _66  and  _69
REMARK   31  A    between atoms: _72  and  _74
REMARK   32  A    between atoms: _74  and  _75
REMARK   33  A    between atoms: _74  and  _77
REMARK   34  A    between atoms: _79  and  _81
REMARK   35  A    between atoms: _81  and  _82
REMARK   36  A    between atoms: _81  and  _84
REMARK   37  A    between atoms: _84  and  _85
REMARK   38  A    between atoms: _87  and  _89
REMARK   39  A    between atoms: _89  and  _90
REMARK   40  A    between atoms: _89  and  _92
REMARK   41  A    between atoms: _92  and  _93
REMARK   42  A    between atoms: _93  and  _94
REMARK   43  A    between atoms: _94  and  _95
REMARK   44  A    between atoms: _104  and  _106
REMARK   45  A    between atoms: _106  and  _107
REMARK   46  A    between atoms: _106  and  _109
REMARK   47  A    between atoms: _112  and  _114
REMARK   48  A    between atoms: _114  and  _115
REMARK   49  A    between atoms: _118  and  _120
REMARK   50  A    between atoms: _120  and  _121
REMARK   51  A    between atoms: _120  and  _123
REMARK   52  A    between atoms: _123  and  _124
REMARK   53  A    between atoms: _127  and  _129
REMARK   54  A    between atoms: _129  and  _130
REMARK   55  A    between atoms: _129  and  _132
REMARK   56  A    between atoms: _132  and  _133
REMARK   57  A    between atoms: _133  and  _134
REMARK   58  A    between atoms: _134  and  _135
REMARK   59  A    between atoms: _135  and  _136
REMARK   60  A    between atoms: _140  and  _142
REMARK   61  A    between atoms: _142  and  _143
REMARK   62  A    between atoms: _142  and  _145
REMARK   63  A    between atoms: _145  and  _146
REMARK   64  A    between atoms: _146  and  _147
REMARK   65  A    between atoms: _147  and  _148
REMARK   66  A    between atoms: _148  and  _149
REMARK   67  A    between atoms: _153  and  _155
REMARK   68  A    between atoms: _155  and  _156
REMARK   69  A    between atoms: _155  and  _158
REMARK   70  A    between atoms: _158  and  _159
REMARK   71  A    between atoms: _162  and  _164
REMARK   72  A    between atoms: _164  and  _165
REMARK   73  A    between atoms: _164  and  _167
REMARK   74  A    between atoms: _167  and  _168
REMARK   75  A    between atoms: _171  and  _172
REMARK   76  A    between atoms: _177  and  _179
REMARK   77  A    between atoms: _179  and  _180
REMARK   78  A    between atoms: _179  and  _182
REMARK   79  A    between atoms: _182  and  _183
REMARK   80  A    between atoms: _189  and  _191
REMARK   81  A    between atoms: _191  and  _192
REMARK   82  A    between atoms: _191  and  _194
REMARK   83  A    between atoms: _194  and  _195
REMARK   84  A    between atoms: _195  and  _196
REMARK   85  A    between atoms: _199  and  _201
REMARK   86  A    between atoms: _201  and  _202
REMARK   87  A    between atoms: _201  and  _204
REMARK   88  A    between atoms: _204  and  _205
REMARK   89  A    between atoms: _210  and  _212
REMARK   90  A    between atoms: _212  and  _213
REMARK   91  A    between atoms: _212  and  _215
REMARK   92  A    between atoms: _215  and  _216
REMARK   93  A    between atoms: _219  and  _221
REMARK   94  A    between atoms: _221  and  _222
REMARK   95  A    between atoms: _221  and  _224
REMARK   96  A    between atoms: _224  and  _225
REMARK   97  A    between atoms: _230  and  _231
REMARK   98  A    between atoms: _233  and  _235
REMARK   99  A    between atoms: _235  and  _236
REMARK  100  A    between atoms: _235  and  _238
REMARK  101  A    between atoms: _240  and  _242
REMARK  102  A    between atoms: _242  and  _243
REMARK  103  A    between atoms: _242  and  _245
REMARK  104  A    between atoms: _245  and  _246
REMARK  105  A    between atoms: _246  and  _247
REMARK  106  A    between atoms: _252  and  _254
REMARK  107  A    between atoms: _254  and  _255
REMARK  108  A    between atoms: _254  and  _257
REMARK  109  A    between atoms: _257  and  _258
REMARK  110  A    between atoms: _258  and  _259
REMARK  111  A    between atoms: _259  and  _260
REMARK  112  A    between atoms: _269  and  _271
REMARK  113  A    between atoms: _271  and  _272
REMARK  114  A    between atoms: _271  and  _274
REMARK  115  A    between atoms: _274  and  _275
REMARK  116  A    between atoms: _278  and  _280
REMARK  117  A    between atoms: _280  and  _281
REMARK  118  A    between atoms: _280  and  _283
REMARK  119  A    between atoms: _283  and  _284
REMARK  120  A    between atoms: _287  and  _289
REMARK  121  A    between atoms: _289  and  _290
REMARK  122  A    between atoms: _289  and  _292
REMARK  123  A    between atoms: _292  and  _293
REMARK  124  A    between atoms: _293  and  _294
REMARK  125  A    between atoms: _294  and  _295
REMARK  126  A    between atoms: _304  and  _306
REMARK  127  A    between atoms: _306  and  _307
REMARK  128  A    between atoms: _306  and  _309
REMARK  129  A    between atoms: _309  and  _310
REMARK  130  A    between atoms: _310  and  _311
REMARK  131  A    between atoms: _314  and  _316
REMARK  132  A    between atoms: _316  and  _317
REMARK  133  A    between atoms: _316  and  _319
REMARK  134  A    between atoms: _319  and  _320
REMARK  135  A    between atoms: _323  and  _325
REMARK  136  A    between atoms: _325  and  _326
REMARK  137  A    between atoms: _325  and  _328
REMARK  138  A    between atoms: _328  and  _329
REMARK  139  A    between atoms: _332  and  _334
REMARK  140  A    between atoms: _334  and  _335
REMARK  141  A    between atoms: _334  and  _337
REMARK  142  A    between atoms: _337  and  _338
REMARK  143  A    between atoms: _341  and  _343
REMARK  144  A    between atoms: _343  and  _344
REMARK  145  A    between atoms: _346  and  _348
REMARK  146  A    between atoms: _348  and  _349
REMARK  147  A    between atoms: _348  and  _351
REMARK  148  A    between atoms: _351  and  _352
REMARK  149  A    between atoms: _355  and  _357
REMARK  150  A    between atoms: _357  and  _358
REMARK  151  A    between atoms: _357  and  _360
REMARK  152  A    between atoms: _363  and  _365
REMARK  153  A    between atoms: _365  and  _366
REMARK  154  A    between atoms: _365  and  _368
REMARK  155  A    between atoms: _368  and  _369
REMARK  156  A    between atoms: _372  and  _374
REMARK  157  A    between atoms: _374  and  _375
REMARK  158  A    between atoms: _374  and  _377
REMARK  159  A    between atoms: _380  and  _382
REMARK  160  A    between atoms: _382  and  _383
REMARK  161  A    between atoms: _382  and  _385
REMARK  162  A    between atoms: _385  and  _386
REMARK  163  A    between atoms: _386  and  _387
REMARK  164  A    between atoms: _392  and  _394
REMARK  165  A    between atoms: _394  and  _395
REMARK  166  A    between atoms: _394  and  _397
REMARK  167  A    between atoms: _397  and  _398
REMARK  168  A    between atoms: _401  and  _403
REMARK  169  A    between atoms: _403  and  _404
REMARK  170  A    between atoms: _403  and  _406
REMARK  171  A    between atoms: _406  and  _407
REMARK  172  A    between atoms: _410  and  _412
REMARK  173  A    between atoms: _412  and  _413
REMARK  174  A    between atoms: _412  and  _415
REMARK  175  A    between atoms: _415  and  _416
REMARK  176  A    between atoms: _416  and  _417
REMARK  177  A    between atoms: _419  and  _421
REMARK  178  A    between atoms: _421  and  _422
REMARK  179  A    between atoms: _421  and  _424
REMARK  180  A    between atoms: _424  and  _425
REMARK  181  A    between atoms: _425  and  _426
REMARK  182  A    between atoms: _429  and  _431
REMARK  183  A    between atoms: _431  and  _432
REMARK  184  A    between atoms: _431  and  _434
REMARK  185  A    between atoms: _434  and  _435
REMARK  186  A    between atoms: _438  and  _440
REMARK  187  A    between atoms: _440  and  _441
REMARK  188  A    between atoms: _440  and  _443
REMARK  189  A    between atoms: _443  and  _444
REMARK  190  A    between atoms: _447  and  _449
REMARK  191  A    between atoms: _449  and  _450
REMARK  192  A    between atoms: _449  and  _452
REMARK  193  A    between atoms: _452  and  _453
REMARK  194  A    between atoms: _453  and  _454
REMARK  195  A    between atoms: _454  and  _455
REMARK  196  A    between atoms: _455  and  _456
REMARK  197  A    between atoms: _460  and  _462
REMARK  198  A    between atoms: _462  and  _463
REMARK  199  A    between atoms: _462  and  _465
REMARK  200  A    between atoms: _465  and  _466
REMARK  201  A    between atoms: _468  and  _470
REMARK  202  A    between atoms: _470  and  _471
REMARK  203  A    between atoms: _470  and  _473
REMARK  204  A    between atoms: _473  and  _474
REMARK  205  A    between atoms: _479  and  _481
REMARK  206  A    between atoms: _481  and  _482
REMARK  207  A    between atoms: _481  and  _484
REMARK  208  A    between atoms: _484  and  _485
REMARK  209  A    between atoms: _488  and  _490
REMARK  210  A    between atoms: _490  and  _491
REMARK  211  A    between atoms: _490  and  _493
REMARK  212  A    between atoms: _493  and  _494
REMARK  213  A    between atoms: _497  and  _499
REMARK  214  A    between atoms: _499  and  _500
REMARK  215  A    between atoms: _499  and  _502
REMARK  216  A    between atoms: _502  and  _503
REMARK  217  A    between atoms: _503  and  _504
REMARK  218  A    between atoms: _504  and  _505
REMARK  219  A    between atoms: _505  and  _506
REMARK  220  A    between atoms: _510  and  _512
REMARK  221  A    between atoms: _512  and  _513
REMARK  222  A    between atoms: _512  and  _515
REMARK  223  A    between atoms: _515  and  _516
REMARK  224  A    between atoms: _519  and  _521
REMARK  225  A    between atoms: _521  and  _522
REMARK  226  A    between atoms: _521  and  _524
REMARK  227  A    between atoms: _526  and  _528
REMARK  228  A    between atoms: _528  and  _529
REMARK  229  A    between atoms: _528  and  _531
REMARK  230  A    between atoms: _531  and  _532
REMARK  231  A    between atoms: _535  and  _537
REMARK  232  A    between atoms: _537  and  _538
REMARK  233  A    between atoms: _537  and  _540
REMARK  234  A    between atoms: _540  and  _541
REMARK  235  A    between atoms: _547  and  _549
REMARK  236  A    between atoms: _549  and  _550
REMARK  237  A    between atoms: _552  and  _554
REMARK  238  A    between atoms: _554  and  _555
REMARK  239  A    between atoms: _554  and  _557
REMARK  240  A    between atoms: _557  and  _558
REMARK  241  A    between atoms: _561  and  _563
REMARK  242  A    between atoms: _563  and  _564
REMARK                            x       y       z     vdW  Elec       q    Type
REMARK                         _______ _______ _______ _____ _____    ______ ____
ROOT
ATOM      1  CG  LYS A   1      43.339   6.592  15.675  0.00  0.00    -0.000 C 
ENDROOT
BRANCH   1   2
ATOM      2  CB  LYS A   1      44.013   5.493  16.463  0.00  0.00    +0.025 C 
BRANCH   2   3
ATOM      3  CA  LYS A   1      43.894   5.667  17.980  0.00  0.00    +0.133 C 
BRANCH   3   4
ATOM      4  N   LYS A   1      44.678   6.824  18.413  0.00  0.00    -0.239 NA
ATOM      5  H   LYS A   1      45.318   7.293  17.740  0.00  0.00    +0.142 HD
ENDBRANCH   3   4
BRANCH   3   6
ATOM      6  C   LYS A   1      44.352   4.390  18.681  0.00  0.00    +0.224 C 
ATOM      7  O   LYS A   1      43.518   3.546  19.034  0.00  0.00    -0.287 OA
ENDBRANCH   3   6
ENDBRANCH   2   3
ENDBRANCH   1   2
BRANCH   1   8
ATOM      8  CD  LYS A   1      43.497   6.340  14.180  0.00  0.00    -0.024 C 
BRANCH   8   9
ATOM      9  CE  LYS A   1      42.935   7.455  13.343  0.00  0.00    -0.086 C 
BRANCH   9  10
ATOM     10  NZ  LYS A   1      43.173   7.224  11.899  0.00  0.00    +0.380 N 
ATOM     11  HZ1 LYS A   1      44.196   7.163  11.723  0.00  0.00    -0.089 HD
ATOM     12  HZ2 LYS A   1      42.717   6.334  11.612  0.00  0.00    -0.089 HD
ATOM     13  HZ3 LYS A   1      42.772   8.013  11.352  0.00  0.00    -0.089 HD
ENDBRANCH   9  10
ENDBRANCH   8   9
ENDBRANCH   1   8
TORSDOF 7
REMARK  Name = ../refined-set-2016/4qyy/4qyy_pocket.pdb
REMARK  242 active torsions:
REMARK  status: ('A' for Active; 'I' for Inactive)
REMARK    1  A    between atoms: _1  and  _3
REMARK    2  A    between atoms: _3  and  _4
REMARK    3  A    between atoms: _3  and  _6
REMARK    4  A    between atoms: _6  and  _7
REMARK    5  A    between atoms: _10  and  _12
REMARK    6  A    between atoms: _12  and  _13
REMARK    7  A    between atoms: _15  and  _17
REMARK    8  A    between atoms: _17  and  _18
REMARK    9  A    between atoms: _17  and  _20
REMARK   10  A    between atoms: _20  and  _21
REMARK   11  A    between atoms: _21  and  _22
REMARK   12  A    between atoms: _25  and  _27
REMARK   13  A    between atoms: _27  and  _28
REMARK   14  A    between atoms: _30  and  _32
REMARK   15  A    between atoms: _32  and  _33
REMARK   16  A    between atoms: _36  and  _38
REMARK   17  A    between atoms: _38  and  _39
REMARK   18  A    between atoms: _38  and  _41
REMARK   19  A    between atoms: _41  and  _42
REMARK   20  A    between atoms: _47  and  _48
REMARK   21  A    between atoms: _50  and  _52
REMARK   22  A    between atoms: _52  and  _53
REMARK   23  A    between atoms: _55  and  _57
REMARK   24  A    between atoms: _57  and  _58
REMARK   25  A    between atoms: _57  and  _60
REMARK   26  A    between atoms: _60  and  _61
REMARK   27  A    between atoms: _61  and  _62
REMARK   28  A    between atoms: _64  and  _66
REMARK   29  A    between atoms: _66  and  _67
REMARK   30  A    between atoms: _66  and  _69
REMARK   31  A    between atoms: _72  and  _74
REMARK   32  A    between atoms: _74  and  _75
REMARK   33  A    between atoms: _74  and  _77
REMARK   34  A    between atoms: _79  and  _81
REMARK   35  A    between atoms: _81  and  _82
REMARK   36  A    between atoms: _81  and  _84
REMARK   37  A    between atoms: _84  and  _85
REMARK   38  A    between atoms: _87  and  _89
REMARK   39  A    between atoms: _89  and  _90
REMARK   40  A    between atoms: _89  and  _92
REMARK   41  A    between atoms: _92  and  _93
REMARK   42  A    between atoms: _93  and  _94
REMARK   43  A    between atoms: _94  and  _95
REMARK   44  A    between atoms: _104  and  _106
REMARK   45  A    between atoms: _106  and  _107
REMARK   46  A    between atoms: _106  and  _109
REMARK   47  A    between atoms: _112  and  _114
REMARK   48  A    between atoms: _114  and  _115
REMARK   49  A    between atoms: _118  and  _120
REMARK   50  A    between atoms: _120  and  _121
REMARK   51  A    between atoms: _120  and  _123
REMARK   52  A    between atoms: _123  and  _124
REMARK   53  A    between atoms: _127  and  _129
REMARK   54  A    between atoms: _129  and  _130
REMARK   55  A    between atoms: _129  and  _132
REMARK   56  A    between atoms: _132  and  _133
REMARK   57  A    between atoms: _133  and  _134
REMARK   58  A    between atoms: _134  and  _135
REMARK   59  A    between atoms: _135  and  _136
REMARK   60  A    between atoms: _140  and  _142
REMARK   61  A    between atoms: _142  and  _143
REMARK   62  A    between atoms: _142  and  _145
REMARK   63  A    between atoms: _145  and  _146
REMARK   64  A    between atoms: _146  and  _147
REMARK   65  A    between atoms: _147  and  _148
REMARK   66  A    between atoms: _148  and  _149
REMARK   67  A    between atoms: _153  and  _155
REMARK   68  A    between atoms: _155  and  _156
REMARK   69  A    between atoms: _155  and  _158
REMARK   70  A    between atoms: _158  and  _159
REMARK   71  A    between atoms: _162  and  _164
REMARK   72  A    between atoms: _164  and  _165
REMARK   73  A    between atoms: _164  and  _167
REMARK   74  A    between atoms: _167  and  _168
REMARK   75  A    between atoms: _171  and  _172
REMARK   76  A    between atoms: _177  and  _179
REMARK   77  A    between atoms: _179  and  _180
REMARK   78  A    between atoms: _179  and  _182
REMARK   79  A    between atoms: _182  and  _183
REMARK   80  A    between atoms: _189  and  _191
REMARK   81  A    between atoms: _191  and  _192
REMARK   82  A    between atoms: _191  and  _194
REMARK   83  A    between atoms: _194  and  _195
REMARK   84  A    between atoms: _195  and  _196
REMARK   85  A    between atoms: _199  and  _201
REMARK   86  A    between atoms: _201  and  _202
REMARK   87  A    between atoms: _201  and  _204
REMARK   88  A    between atoms: _204  and  _205
REMARK   89  A    between atoms: _210  and  _212
REMARK   90  A    between atoms: _212  and  _213
REMARK   91  A    between atoms: _212  and  _215
REMARK   92  A    between atoms: _215  and  _216
REMARK   93  A    between atoms: _219  and  _221
REMARK   94  A    between atoms: _221  and  _222
REMARK   95  A    between atoms: _221  and  _224
REMARK   96  A    between atoms: _224  and  _225
REMARK   97  A    between atoms: _230  and  _231
REMARK   98  A    between atoms: _233  and  _235
REMARK   99  A    between atoms: _235  and  _236
REMARK  100  A    between atoms: _235  and  _238
REMARK  101  A    between atoms: _240  and  _242
REMARK  102  A    between atoms: _242  and  _243
REMARK  103  A    between atoms: _242  and  _245
REMARK  104  A    between atoms: _245  and  _246
REMARK  105  A    between atoms: _246  and  _247
REMARK  106  A    between atoms: _252  and  _254
REMARK  107  A    between atoms: _254  and  _255
REMARK  108  A    between atoms: _254  and  _257
REMARK  109  A    between atoms: _257  and  _258
REMARK  110  A    between atoms: _258  and  _259
REMARK  111  A    between atoms: _259  and  _260
REMARK  112  A    between atoms: _269  and  _271
REMARK  113  A    between atoms: _271  and  _272
REMARK  114  A    between atoms: _271  and  _274
REMARK  115  A    between atoms: _274  and  _275
REMARK  116  A    between atoms: _278  and  _280
REMARK  117  A    between atoms: _280  and  _281
REMARK  118  A    between atoms: _280  and  _283
REMARK  119  A    between atoms: _283  and  _284
REMARK  120  A    between atoms: _287  and  _289
REMARK  121  A    between atoms: _289  and  _290
REMARK  122  A    between atoms: _289  and  _292
REMARK  123  A    between atoms: _292  and  _293
REMARK  124  A    between atoms: _293  and  _294
REMARK  125  A    between atoms: _294  and  _295
REMARK  126  A    between atoms: _304  and  _306
REMARK  127  A    between atoms: _306  and  _307
REMARK  128  A    between atoms: _306  and  _309
REMARK  129  A    between atoms: _309  and  _310
REMARK  130  A    between atoms: _310  and  _311
REMARK  131  A    between atoms: _314  and  _316
REMARK  132  A    between atoms: _316  and  _317
REMARK  133  A    between atoms: _316  and  _319
REMARK  134  A    between atoms: _319  and  _320
REMARK  135  A    between atoms: _323  and  _325
REMARK  136  A    between atoms: _325  and  _326
REMARK  137  A    between atoms: _325  and  _328
REMARK  138  A    between atoms: _328  and  _329
REMARK  139  A    between atoms: _332  and  _334
REMARK  140  A    between atoms: _334  and  _335
REMARK  141  A    between atoms: _334  and  _337
REMARK  142  A    between atoms: _337  and  _338
REMARK  143  A    between atoms: _341  and  _343
REMARK  144  A    between atoms: _343  and  _344
REMARK  145  A    between atoms: _346  and  _348
REMARK  146  A    between atoms: _348  and  _349
REMARK  147  A    between atoms: _348  and  _351
REMARK  148  A    between atoms: _351  and  _352
REMARK  149  A    between atoms: _355  and  _357
REMARK  150  A    between atoms: _357  and  _358
REMARK  151  A    between atoms: _357  and  _360
REMARK  152  A    between atoms: _363  and  _365
REMARK  153  A    between atoms: _365  and  _366
REMARK  154  A    between atoms: _365  and  _368
REMARK  155  A    between atoms: _368  and  _369
REMARK  156  A    between atoms: _372  and  _374
REMARK  157  A    between atoms: _374  and  _375
REMARK  158  A    between atoms: _374  and  _377
REMARK  159  A    between atoms: _380  and  _382
REMARK  160  A    between atoms: _382  and  _383
REMARK  161  A    between atoms: _382  and  _385
REMARK  162  A    between atoms: _385  and  _386
REMARK  163  A    between atoms: _386  and  _387
REMARK  164  A    between atoms: _392  and  _394
REMARK  165  A    between atoms: _394  and  _395
REMARK  166  A    between atoms: _394  and  _397
REMARK  167  A    between atoms: _397  and  _398
REMARK  168  A    between atoms: _401  and  _403
REMARK  169  A    between atoms: _403  and  _404
REMARK  170  A    between atoms: _403  and  _406
REMARK  171  A    between atoms: _406  and  _407
REMARK  172  A    between atoms: _410  and  _412
REMARK  173  A    between atoms: _412  and  _413
REMARK  174  A    between atoms: _412  and  _415
REMARK  175  A    between atoms: _415  and  _416
REMARK  176  A    between atoms: _416  and  _417
REMARK  177  A    between atoms: _419  and  _421
REMARK  178  A    between atoms: _421  and  _422
REMARK  179  A    between atoms: _421  and  _424
REMARK  180  A    between atoms: _424  and  _425
REMARK  181  A    between atoms: _425  and  _426
REMARK  182  A    between atoms: _429  and  _431
REMARK  183  A    between atoms: _431  and  _432
REMARK  184  A    between atoms: _431  and  _434
REMARK  185  A    between atoms: _434  and  _435
REMARK  186  A    between atoms: _438  and  _440
REMARK  187  A    between atoms: _440  and  _441
REMARK  188  A    between atoms: _440  and  _443
REMARK  189  A    between atoms: _443  and  _444
REMARK  190  A    between atoms: _447  and  _449
REMARK  191  A    between atoms: _449  and  _450
REMARK  192  A    between atoms: _449  and  _452
REMARK  193  A    between atoms: _452  and  _453
REMARK  194  A    between atoms: _453  and  _454
REMARK  195  A    between atoms: _454  and  _455
REMARK  196  A    between atoms: _455  and  _456
REMARK  197  A    between atoms: _460  and  _462
REMARK  198  A    between atoms: _462  and  _463
REMARK  199  A    between atoms: _462  and  _465
REMARK  200  A    between atoms: _465  and  _466
REMARK  201  A    between atoms: _468  and  _470
REMARK  202  A    between atoms: _470  and  _471
REMARK  203  A    between atoms: _470  and  _473
REMARK  204  A    between atoms: _473  and  _474
REMARK  205  A    between atoms: _479  and  _481
REMARK  206  A    between atoms: _481  and  _482
REMARK  207  A    between atoms: _481  and  _484
REMARK  208  A    between atoms: _484  and  _485
REMARK  209  A    between atoms: _488  and  _490
REMARK  210  A    between atoms: _490  and  _491
REMARK  211  A    between atoms: _490  and  _493
REMARK  212  A    between atoms: _493  and  _494
REMARK  213  A    between atoms: _497  and  _499
REMARK  214  A    between atoms: _499  and  _500
REMARK  215  A    between atoms: _499  and  _502
REMARK  216  A    between atoms: _502  and  _503
REMARK  217  A    between atoms: _503  and  _504
REMARK  218  A    between atoms: _504  and  _505
REMARK  219  A    between atoms: _505  and  _506
REMARK  220  A    between atoms: _510  and  _512
REMARK  221  A    between atoms: _512  and  _513
REMARK  222  A    between atoms: _512  and  _515
REMARK  223  A    between atoms: _515  and  _516
REMARK  224  A    between atoms: _519  and  _521
REMARK  225  A    between atoms: _521  and  _522
REMARK  226  A    between atoms: _521  and  _524
REMARK  227  A    between atoms: _526  and  _528
REMARK  228  A    between atoms: _528  and  _529
REMARK  229  A    between atoms: _528  and  _531
REMARK  230  A    between atoms: _531  and  _532
REMARK  231  A    between atoms: _535  and  _537
REMARK  232  A    between atoms: _537  and  _538
REMARK  233  A    between atoms: _537  and  _540
REMARK  234  A    between atoms: _540  and  _541
REMARK  235  A    between atoms: _547  and  _549
REMARK  236  A    between atoms: _549  and  _550
REMARK  237  A    between atoms: _552  and  _554
REMARK  238  A    between atoms: _554  and  _555
REMARK  239  A    between atoms: _554  and  _557
REMARK  240  A    between atoms: _557  and  _558
REMARK  241  A    between atoms: _561  and  _563
REMARK  242  A    between atoms: _563  and  _564
REMARK                            x       y       z     vdW  Elec       q    Type
REMARK                         _______ _______ _______ _____ _____    ______ ____
ROOT
ATOM      1  C   SER A   1      48.073  12.876  16.836  0.00  0.00    +0.241 C 
ATOM      2  N   ASN A   2      49.066  13.592  17.391  0.00  0.00    -0.298 N 
ATOM      3  H   ASN A   2      49.049  13.775  18.415  0.00  0.00    +0.150 HD
ATOM      4  O   SER A   1      47.981  12.690  15.612  0.00  0.00    -0.274 OA
ENDROOT
BRANCH   1   5
ATOM      5  CA  SER A   1      46.996  12.300  17.755  0.00  0.00    +0.174 C 
BRANCH   5   6
ATOM      6  N   SER A   1      47.361  12.357  19.176  0.00  0.00    -0.236 NA
ATOM      7  H   SER A   1      46.860  13.005  19.817  0.00  0.00    +0.142 HD
ENDBRANCH   5   6
BRANCH   5   8
ATOM      8  CB  SER A   1      45.665  12.993  17.494  0.00  0.00    +0.163 C 
BRANCH   8   9
ATOM      9  OG  SER A   1      45.727  14.334  17.922  0.00  0.00    -0.380 OA
ATOM     10  H   SER A   1      45.924  14.361  18.892  0.00  0.00    +0.211 HD
ENDBRANCH   8   9
ENDBRANCH   5   8
ENDBRANCH   1   5
BRANCH   2  11
ATOM     11  CA  ASN A   2      50.176  14.122  16.586  0.00  0.00    +0.146 C 
BRANCH  11  12
ATOM     12  C   ASN A   2      51.428  13.270  16.681  0.00  0.00    +0.227 C 
ATOM     13  O   ASN A   2      52.517  13.725  16.313  0.00  0.00    -0.286 OA
ENDBRANCH  11  12
BRANCH  11  14
ATOM     14  CB  ASN A   2      50.459  15.550  16.967  0.00  0.00    +0.112 C 
BRANCH  14  15
ATOM     15  CG  ASN A   2      49.387  16.495  16.478  0.00  0.00    +0.222 C 
ATOM     16  ND2 ASN A   2      49.277  17.672  17.073  0.00  0.00    -0.329 N 
ATOM     17 HD21 ASN A   2      49.873  17.897  17.895  0.00  0.00    +0.145 HD
ATOM     18 HD22 ASN A   2      48.595  18.372  16.718  0.00  0.00    +0.145 HD
ATOM     19  OD1 ASN A   2      48.696  16.197  15.501  0.00  0.00    -0.275 OA
ENDBRANCH  14  15
ENDBRANCH  11  14
ENDBRANCH   2  11
TORSDOF 8
REMARK  Name = ../refined-set-2016/4qyy/4qyy_pocket.pdb
REMARK  242 active torsions:
REMARK  status: ('A' for Active; 'I' for Inactive)
REMARK    1  A    between atoms: _1  and  _3
REMARK    2  A    between atoms: _3  and  _4
REMARK    3  A    between atoms: _3  and  _6
REMARK    4  A    between atoms: _6  and  _7
REMARK    5  A    between atoms: _10  and  _12
REMARK    6  A    between atoms: _12  and  _13
REMARK    7  A    between atoms: _15  and  _17
REMARK    8  A    between atoms: _17  and  _18
REMARK    9  A    between atoms: _17  and  _20
REMARK   10  A    between atoms: _20  and  _21
REMARK   11  A    between atoms: _21  and  _22
REMARK   12  A    between atoms: _25  and  _27
REMARK   13  A    between atoms: _27  and  _28
REMARK   14  A    between atoms: _30  and  _32
REMARK   15  A    between atoms: _32  and  _33
REMARK   16  A    between atoms: _36  and  _38
REMARK   17  A    between atoms: _38  and  _39
REMARK   18  A    between atoms: _38  and  _41
REMARK   19  A    between atoms: _41  and  _42
REMARK   20  A    between atoms: _47  and  _48
REMARK   21  A    between atoms: _50  and  _52
REMARK   22  A    between atoms: _52  and  _53
REMARK   23  A    between atoms: _55  and  _57
REMARK   24  A    between atoms: _57  and  _58
REMARK   25  A    between atoms: _57  and  _60
REMARK   26  A    between atoms: _60  and  _61
REMARK   27  A    between atoms: _61  and  _62
REMARK   28  A    between atoms: _64  and  _66
REMARK   29  A    between atoms: _66  and  _67
REMARK   30  A    between atoms: _66  and  _69
REMARK   31  A    between atoms: _72  and  _74
REMARK   32  A    between atoms: _74  and  _75
REMARK   33  A    between atoms: _74  and  _77
REMARK   34  A    between atoms: _79  and  _81
REMARK   35  A    between atoms: _81  and  _82
REMARK   36  A    between atoms: _81  and  _84
REMARK   37  A    between atoms: _84  and  _85
REMARK   38  A    between atoms: _87  and  _89
REMARK   39  A    between atoms: _89  and  _90
REMARK   40  A    between atoms: _89  and  _92
REMARK   41  A    between atoms: _92  and  _93
REMARK   42  A    between atoms: _93  and  _94
REMARK   43  A    between atoms: _94  and  _95
REMARK   44  A    between atoms: _104  and  _106
REMARK   45  A    between atoms: _106  and  _107
REMARK   46  A    between atoms: _106  and  _109
REMARK   47  A    between atoms: _112  and  _114
REMARK   48  A    between atoms: _114  and  _115
REMARK   49  A    between atoms: _118  and  _120
REMARK   50  A    between atoms: _120  and  _121
REMARK   51  A    between atoms: _120  and  _123
REMARK   52  A    between atoms: _123  and  _124
REMARK   53  A    between atoms: _127  and  _129
REMARK   54  A    between atoms: _129  and  _130
REMARK   55  A    between atoms: _129  and  _132
REMARK   56  A    between atoms: _132  and  _133
REMARK   57  A    between atoms: _133  and  _134
REMARK   58  A    between atoms: _134  and  _135
REMARK   59  A    between atoms: _135  and  _136
REMARK   60  A    between atoms: _140  and  _142
REMARK   61  A    between atoms: _142  and  _143
REMARK   62  A    between atoms: _142  and  _145
REMARK   63  A    between atoms: _145  and  _146
REMARK   64  A    between atoms: _146  and  _147
REMARK   65  A    between atoms: _147  and  _148
REMARK   66  A    between atoms: _148  and  _149
REMARK   67  A    between atoms: _153  and  _155
REMARK   68  A    between atoms: _155  and  _156
REMARK   69  A    between atoms: _155  and  _158
REMARK   70  A    between atoms: _158  and  _159
REMARK   71  A    between atoms: _162  and  _164
REMARK   72  A    between atoms: _164  and  _165
REMARK   73  A    between atoms: _164  and  _167
REMARK   74  A    between atoms: _167  and  _168
REMARK   75  A    between atoms: _171  and  _172
REMARK   76  A    between atoms: _177  and  _179
REMARK   77  A    between atoms: _179  and  _180
REMARK   78  A    between atoms: _179  and  _182
REMARK   79  A    between atoms: _182  and  _183
REMARK   80  A    between atoms: _189  and  _191
REMARK   81  A    between atoms: _191  and  _192
REMARK   82  A    between atoms: _191  and  _194
REMARK   83  A    between atoms: _194  and  _195
REMARK   84  A    between atoms: _195  and  _196
REMARK   85  A    between atoms: _199  and  _201
REMARK   86  A    between atoms: _201  and  _202
REMARK   87  A    between atoms: _201  and  _204
REMARK   88  A    between atoms: _204  and  _205
REMARK   89  A    between atoms: _210  and  _212
REMARK   90  A    between atoms: _212  and  _213
REMARK   91  A    between atoms: _212  and  _215
REMARK   92  A    between atoms: _215  and  _216
REMARK   93  A    between atoms: _219  and  _221
REMARK   94  A    between atoms: _221  and  _222
REMARK   95  A    between atoms: _221  and  _224
REMARK   96  A    between atoms: _224  and  _225
REMARK   97  A    between atoms: _230  and  _231
REMARK   98  A    between atoms: _233  and  _235
REMARK   99  A    between atoms: _235  and  _236
REMARK  100  A    between atoms: _235  and  _238
REMARK  101  A    between atoms: _240  and  _242
REMARK  102  A    between atoms: _242  and  _243
REMARK  103  A    between atoms: _242  and  _245
REMARK  104  A    between atoms: _245  and  _246
REMARK  105  A    between atoms: _246  and  _247
REMARK  106  A    between atoms: _252  and  _254
REMARK  107  A    between atoms: _254  and  _255
REMARK  108  A    between atoms: _254  and  _257
REMARK  109  A    between atoms: _257  and  _258
REMARK  110  A    between atoms: _258  and  _259
REMARK  111  A    between atoms: _259  and  _260
REMARK  112  A    between atoms: _269  and  _271
REMARK  113  A    between atoms: _271  and  _272
REMARK  114  A    between atoms: _271  and  _274
REMARK  115  A    between atoms: _274  and  _275
REMARK  116  A    between atoms: _278  and  _280
REMARK  117  A    between atoms: _280  and  _281
REMARK  118  A    between atoms: _280  and  _283
REMARK  119  A    between atoms: _283  and  _284
REMARK  120  A    between atoms: _287  and  _289
REMARK  121  A    between atoms: _289  and  _290
REMARK  122  A    between atoms: _289  and  _292
REMARK  123  A    between atoms: _292  and  _293
REMARK  124  A    between atoms: _293  and  _294
REMARK  125  A    between atoms: _294  and  _295
REMARK  126  A    between atoms: _304  and  _306
REMARK  127  A    between atoms: _306  and  _307
REMARK  128  A    between atoms: _306  and  _309
REMARK  129  A    between atoms: _309  and  _310
REMARK  130  A    between atoms: _310  and  _311
REMARK  131  A    between atoms: _314  and  _316
REMARK  132  A    between atoms: _316  and  _317
REMARK  133  A    between atoms: _316  and  _319
REMARK  134  A    between atoms: _319  and  _320
REMARK  135  A    between atoms: _323  and  _325
REMARK  136  A    between atoms: _325  and  _326
REMARK  137  A    between atoms: _325  and  _328
REMARK  138  A    between atoms: _328  and  _329
REMARK  139  A    between atoms: _332  and  _334
REMARK  140  A    between atoms: _334  and  _335
REMARK  141  A    between atoms: _334  and  _337
REMARK  142  A    between atoms: _337  and  _338
REMARK  143  A    between atoms: _341  and  _343
REMARK  144  A    between atoms: _343  and  _344
REMARK  145  A    between atoms: _346  and  _348
REMARK  146  A    between atoms: _348  and  _349
REMARK  147  A    between atoms: _348  and  _351
REMARK  148  A    between atoms: _351  and  _352
REMARK  149  A    between atoms: _355  and  _357
REMARK  150  A    between atoms: _357  and  _358
REMARK  151  A    between atoms: _357  and  _360
REMARK  152  A    between atoms: _363  and  _365
REMARK  153  A    between atoms: _365  and  _366
REMARK  154  A    between atoms: _365  and  _368
REMARK  155  A    between atoms: _368  and  _369
REMARK  156  A    between atoms: _372  and  _374
REMARK  157  A    between atoms: _374  and  _375
REMARK  158  A    between atoms: _374  and  _377
REMARK  159  A    between atoms: _380  and  _382
REMARK  160  A    between atoms: _382  and  _383
REMARK  161  A    between atoms: _382  and  _385
REMARK  162  A    between atoms: _385  and  _386
REMARK  163  A    between atoms: _386  and  _387
REMARK  164  A    between atoms: _392  and  _394
REMARK  165  A    between atoms: _394  and  _395
REMARK  166  A    between atoms: _394  and  _397
REMARK  167  A    between atoms: _397  and  _398
REMARK  168  A    between atoms: _401  and  _403
REMARK  169  A    between atoms: _403  and  _404
REMARK  170  A    between atoms: _403  and  _406
REMARK  171  A    between atoms: _406  and  _407
REMARK  172  A    between atoms: _410  and  _412
REMARK  173  A    between atoms: _412  and  _413
REMARK  174  A    between atoms: _412  and  _415
REMARK  175  A    between atoms: _415  and  _416
REMARK  176  A    between atoms: _416  and  _417
REMARK  177  A    between atoms: _419  and  _421
REMARK  178  A    between atoms: _421  and  _422
REMARK  179  A    between atoms: _421  and  _424
REMARK  180  A    between atoms: _424  and  _425
REMARK  181  A    between atoms: _425  and  _426
REMARK  182  A    between atoms: _429  and  _431
REMARK  183  A    between atoms: _431  and  _432
REMARK  184  A    between atoms: _431  and  _434
REMARK  185  A    between atoms: _434  and  _435
REMARK  186  A    between atoms: _438  and  _440
REMARK  187  A    between atoms: _440  and  _441
REMARK  188  A    between atoms: _440  and  _443
REMARK  189  A    between atoms: _443  and  _444
REMARK  190  A    between atoms: _447  and  _449
REMARK  191  A    between atoms: _449  and  _450
REMARK  192  A    between atoms: _449  and  _452
REMARK  193  A    between atoms: _452  and  _453
REMARK  194  A    between atoms: _453  and  _454
REMARK  195  A    between atoms: _454  and  _455
REMARK  196  A    between atoms: _455  and  _456
REMARK  197  A    between atoms: _460  and  _462
REMARK  198  A    between atoms: _462  and  _463
REMARK  199  A    between atoms: _462  and  _465
REMARK  200  A    between atoms: _465  and  _466
REMARK  201  A    between atoms: _468  and  _470
REMARK  202  A    between atoms: _470  and  _471
REMARK  203  A    between atoms: _470  and  _473
REMARK  204  A    between atoms: _473  and  _474
REMARK  205  A    between atoms: _479  and  _481
REMARK  206  A    between atoms: _481  and  _482
REMARK  207  A    between atoms: _481  and  _484
REMARK  208  A    between atoms: _484  and  _485
REMARK  209  A    between atoms: _488  and  _490
REMARK  210  A    between atoms: _490  and  _491
REMARK  211  A    between atoms: _490  and  _493
REMARK  212  A    between atoms: _493  and  _494
REMARK  213  A    between atoms: _497  and  _499
REMARK  214  A    between atoms: _499  and  _500
REMARK  215  A    between atoms: _499  and  _502
REMARK  216  A    between atoms: _502  and  _503
REMARK  217  A    between atoms: _503  and  _504
REMARK  218  A    between atoms: _504  and  _505
REMARK  219  A    between atoms: _505  and  _506
REMARK  220  A    between atoms: _510  and  _512
REMARK  221  A    between atoms: _512  and  _513
REMARK  222  A    between atoms: _512  and  _515
REMARK  223  A    between atoms: _515  and  _516
REMARK  224  A    between atoms: _519  and  _521
REMARK  225  A    between atoms: _521  and  _522
REMARK  226  A    between atoms: _521  and  _524
REMARK  227  A    between atoms: _526  and  _528
REMARK  228  A    between atoms: _528  and  _529
REMARK  229  A    between atoms: _528  and  _531
REMARK  230  A    between atoms: _531  and  _532
REMARK  231  A    between atoms: _535  and  _537
REMARK  232  A    between atoms: _537  and  _538
REMARK  233  A    between atoms: _537  and  _540
REMARK  234  A    between atoms: _540  and  _541
REMARK  235  A    between atoms: _547  and  _549
REMARK  236  A    between atoms: _549  and  _550
REMARK  237  A    between atoms: _552  and  _554
REMARK  238  A    between atoms: _554  and  _555
REMARK  239  A    between atoms: _554  and  _557
REMARK  240  A    between atoms: _557  and  _558
REMARK  241  A    between atoms: _561  and  _563
REMARK  242  A    between atoms: _563  and  _564
REMARK                            x       y       z     vdW  Elec       q    Type
REMARK                         _______ _______ _______ _____ _____    ______ ____
ROOT
ATOM      1  C   LEU A   1      53.047   7.584  14.434  0.00  0.00    +0.238 C 
ATOM      2  O   LEU A   1      54.205   7.699  14.823  0.00  0.00    -0.274 OA
ATOM      3  N   LEU A   2      52.468   6.394  14.186  0.00  0.00    -0.298 N 
ATOM      4  H   LEU A   2      51.525   6.370  13.749  0.00  0.00    +0.150 HD
ENDROOT
BRANCH   1   5
ATOM      5  CA  LEU A   1      52.240   8.821  14.175  0.00  0.00    +0.145 C 
BRANCH   5   6
ATOM      6  N   LEU A   1      52.581   9.856  15.154  0.00  0.00    -0.238 NA
ATOM      7  H   LEU A   1      53.296  10.570  14.906  0.00  0.00    +0.142 HD
ENDBRANCH   5   6
BRANCH   5   8
ATOM      8  CB  LEU A   1      52.501   9.334  12.759  0.00  0.00    +0.026 C 
BRANCH   8   9
ATOM      9  CG  LEU A   1      51.824  10.667  12.388  0.00  0.00    +0.002 C 
ATOM     10  CD2 LEU A   1      50.323  10.547  12.461  0.00  0.00    +0.000 C 
ATOM     11  CD1 LEU A   1      52.268  11.136  11.070  0.00  0.00    +0.000 C 
ENDBRANCH   8   9
ENDBRANCH   5   8
ENDBRANCH   1   5
BRANCH   3  12
ATOM     12  CA  LEU A   2      53.134   5.135  14.517  0.00  0.00    +0.137 C 
BRANCH  12  13
ATOM     13  C   LEU A   2      53.004   4.147  13.376  0.00  0.00    +0.227 C 
ATOM     14  O   LEU A   2      52.044   4.221  12.624  0.00  0.00    -0.286 OA
ENDBRANCH  12  13
BRANCH  12  15
ATOM     15  CB  LEU A   2      52.452   4.503  15.748  0.00  0.00    +0.028 C 
BRANCH  15  16
ATOM     16  CG  LEU A   2      52.351   5.352  17.014  0.00  0.00    +0.002 C 
ATOM     17  CD2 LEU A   2      51.423   4.706  18.020  0.00  0.00    +0.000 C 
ATOM     18  CD1 LEU A   2      53.691   5.541  17.626  0.00  0.00    +0.000 C 
ENDBRANCH  15  16
ENDBRANCH  12  15
ENDBRANCH   3  12
TORSDOF 8
REMARK  Name = ../refined-set-2016/4qyy/4qyy_pocket.pdb
REMARK  242 active torsions:
REMARK  status: ('A' for Active; 'I' for Inactive)
REMARK    1  A    between atoms: _1  and  _3
REMARK    2  A    between atoms: _3  and  _4
REMARK    3  A    between atoms: _3  and  _6
REMARK    4  A    between atoms: _6  and  _7
REMARK    5  A    between atoms: _10  and  _12
REMARK    6  A    between atoms: _12  and  _13
REMARK    7  A    between atoms: _15  and  _17
REMARK    8  A    between atoms: _17  and  _18
REMARK    9  A    between atoms: _17  and  _20
REMARK   10  A    between atoms: _20  and  _21
REMARK   11  A    between atoms: _21  and  _22
REMARK   12  A    between atoms: _25  and  _27
REMARK   13  A    between atoms: _27  and  _28
REMARK   14  A    between atoms: _30  and  _32
REMARK   15  A    between atoms: _32  and  _33
REMARK   16  A    between atoms: _36  and  _38
REMARK   17  A    between atoms: _38  and  _39
REMARK   18  A    between atoms: _38  and  _41
REMARK   19  A    between atoms: _41  and  _42
REMARK   20  A    between atoms: _47  and  _48
REMARK   21  A    between atoms: _50  and  _52
REMARK   22  A    between atoms: _52  and  _53
REMARK   23  A    between atoms: _55  and  _57
REMARK   24  A    between atoms: _57  and  _58
REMARK   25  A    between atoms: _57  and  _60
REMARK   26  A    between atoms: _60  and  _61
REMARK   27  A    between atoms: _61  and  _62
REMARK   28  A    between atoms: _64  and  _66
REMARK   29  A    between atoms: _66  and  _67
REMARK   30  A    between atoms: _66  and  _69
REMARK   31  A    between atoms: _72  and  _74
REMARK   32  A    between atoms: _74  and  _75
REMARK   33  A    between atoms: _74  and  _77
REMARK   34  A    between atoms: _79  and  _81
REMARK   35  A    between atoms: _81  and  _82
REMARK   36  A    between atoms: _81  and  _84
REMARK   37  A    between atoms: _84  and  _85
REMARK   38  A    between atoms: _87  and  _89
REMARK   39  A    between atoms: _89  and  _90
REMARK   40  A    between atoms: _89  and  _92
REMARK   41  A    between atoms: _92  and  _93
REMARK   42  A    between atoms: _93  and  _94
REMARK   43  A    between atoms: _94  and  _95
REMARK   44  A    between atoms: _104  and  _106
REMARK   45  A    between atoms: _106  and  _107
REMARK   46  A    between atoms: _106  and  _109
REMARK   47  A    between atoms: _112  and  _114
REMARK   48  A    between atoms: _114  and  _115
REMARK   49  A    between atoms: _118  and  _120
REMARK   50  A    between atoms: _120  and  _121
REMARK   51  A    between atoms: _120  and  _123
REMARK   52  A    between atoms: _123  and  _124
REMARK   53  A    between atoms: _127  and  _129
REMARK   54  A    between atoms: _129  and  _130
REMARK   55  A    between atoms: _129  and  _132
REMARK   56  A    between atoms: _132  and  _133
REMARK   57  A    between atoms: _133  and  _134
REMARK   58  A    between atoms: _134  and  _135
REMARK   59  A    between atoms: _135  and  _136
REMARK   60  A    between atoms: _140  and  _142
REMARK   61  A    between atoms: _142  and  _143
REMARK   62  A    between atoms: _142  and  _145
REMARK   63  A    between atoms: _145  and  _146
REMARK   64  A    between atoms: _146  and  _147
REMARK   65  A    between atoms: _147  and  _148
REMARK   66  A    between atoms: _148  and  _149
REMARK   67  A    between atoms: _153  and  _155
REMARK   68  A    between atoms: _155  and  _156
REMARK   69  A    between atoms: _155  and  _158
REMARK   70  A    between atoms: _158  and  _159
REMARK   71  A    between atoms: _162  and  _164
REMARK   72  A    between atoms: _164  and  _165
REMARK   73  A    between atoms: _164  and  _167
REMARK   74  A    between atoms: _167  and  _168
REMARK   75  A    between atoms: _171  and  _172
REMARK   76  A    between atoms: _177  and  _179
REMARK   77  A    between atoms: _179  and  _180
REMARK   78  A    between atoms: _179  and  _182
REMARK   79  A    between atoms: _182  and  _183
REMARK   80  A    between atoms: _189  and  _191
REMARK   81  A    between atoms: _191  and  _192
REMARK   82  A    between atoms: _191  and  _194
REMARK   83  A    between atoms: _194  and  _195
REMARK   84  A    between atoms: _195  and  _196
REMARK   85  A    between atoms: _199  and  _201
REMARK   86  A    between atoms: _201  and  _202
REMARK   87  A    between atoms: _201  and  _204
REMARK   88  A    between atoms: _204  and  _205
REMARK   89  A    between atoms: _210  and  _212
REMARK   90  A    between atoms: _212  and  _213
REMARK   91  A    between atoms: _212  and  _215
REMARK   92  A    between atoms: _215  and  _216
REMARK   93  A    between atoms: _219  and  _221
REMARK   94  A    between atoms: _221  and  _222
REMARK   95  A    between atoms: _221  and  _224
REMARK   96  A    between atoms: _224  and  _225
REMARK   97  A    between atoms: _230  and  _231
REMARK   98  A    between atoms: _233  and  _235
REMARK   99  A    between atoms: _235  and  _236
REMARK  100  A    between atoms: _235  and  _238
REMARK  101  A    between atoms: _240  and  _242
REMARK  102  A    between atoms: _242  and  _243
REMARK  103  A    between atoms: _242  and  _245
REMARK  104  A    between atoms: _245  and  _246
REMARK  105  A    between atoms: _246  and  _247
REMARK  106  A    between atoms: _252  and  _254
REMARK  107  A    between atoms: _254  and  _255
REMARK  108  A    between atoms: _254  and  _257
REMARK  109  A    between atoms: _257  and  _258
REMARK  110  A    between atoms: _258  and  _259
REMARK  111  A    between atoms: _259  and  _260
REMARK  112  A    between atoms: _269  and  _271
REMARK  113  A    between atoms: _271  and  _272
REMARK  114  A    between atoms: _271  and  _274
REMARK  115  A    between atoms: _274  and  _275
REMARK  116  A    between atoms: _278  and  _280
REMARK  117  A    between atoms: _280  and  _281
REMARK  118  A    between atoms: _280  and  _283
REMARK  119  A    between atoms: _283  and  _284
REMARK  120  A    between atoms: _287  and  _289
REMARK  121  A    between atoms: _289  and  _290
REMARK  122  A    between atoms: _289  and  _292
REMARK  123  A    between atoms: _292  and  _293
REMARK  124  A    between atoms: _293  and  _294
REMARK  125  A    between atoms: _294  and  _295
REMARK  126  A    between atoms: _304  and  _306
REMARK  127  A    between atoms: _306  and  _307
REMARK  128  A    between atoms: _306  and  _309
REMARK  129  A    between atoms: _309  and  _310
REMARK  130  A    between atoms: _310  and  _311
REMARK  131  A    between atoms: _314  and  _316
REMARK  132  A    between atoms: _316  and  _317
REMARK  133  A    between atoms: _316  and  _319
REMARK  134  A    between atoms: _319  and  _320
REMARK  135  A    between atoms: _323  and  _325
REMARK  136  A    between atoms: _325  and  _326
REMARK  137  A    between atoms: _325  and  _328
REMARK  138  A    between atoms: _328  and  _329
REMARK  139  A    between atoms: _332  and  _334
REMARK  140  A    between atoms: _334  and  _335
REMARK  141  A    between atoms: _334  and  _337
REMARK  142  A    between atoms: _337  and  _338
REMARK  143  A    between atoms: _341  and  _343
REMARK  144  A    between atoms: _343  and  _344
REMARK  145  A    between atoms: _346  and  _348
REMARK  146  A    between atoms: _348  and  _349
REMARK  147  A    between atoms: _348  and  _351
REMARK  148  A    between atoms: _351  and  _352
REMARK  149  A    between atoms: _355  and  _357
REMARK  150  A    between atoms: _357  and  _358
REMARK  151  A    between atoms: _357  and  _360
REMARK  152  A    between atoms: _363  and  _365
REMARK  153  A    between atoms: _365  and  _366
REMARK  154  A    between atoms: _365  and  _368
REMARK  155  A    between atoms: _368  and  _369
REMARK  156  A    between atoms: _372  and  _374
REMARK  157  A    between atoms: _374  and  _375
REMARK  158  A    between atoms: _374  and  _377
REMARK  159  A    between atoms: _380  and  _382
REMARK  160  A    between atoms: _382  and  _383
REMARK  161  A    between atoms: _382  and  _385
REMARK  162  A    between atoms: _385  and  _386
REMARK  163  A    between atoms: _386  and  _387
REMARK  164  A    between atoms: _392  and  _394
REMARK  165  A    between atoms: _394  and  _395
REMARK  166  A    between atoms: _394  and  _397
REMARK  167  A    between atoms: _397  and  _398
REMARK  168  A    between atoms: _401  and  _403
REMARK  169  A    between atoms: _403  and  _404
REMARK  170  A    between atoms: _403  and  _406
REMARK  171  A    between atoms: _406  and  _407
REMARK  172  A    between atoms: _410  and  _412
REMARK  173  A    between atoms: _412  and  _413
REMARK  174  A    between atoms: _412  and  _415
REMARK  175  A    between atoms: _415  and  _416
REMARK  176  A    between atoms: _416  and  _417
REMARK  177  A    between atoms: _419  and  _421
REMARK  178  A    between atoms: _421  and  _422
REMARK  179  A    between atoms: _421  and  _424
REMARK  180  A    between atoms: _424  and  _425
REMARK  181  A    between atoms: _425  and  _426
REMARK  182  A    between atoms: _429  and  _431
REMARK  183  A    between atoms: _431  and  _432
REMARK  184  A    between atoms: _431  and  _434
REMARK  185  A    between atoms: _434  and  _435
REMARK  186  A    between atoms: _438  and  _440
REMARK  187  A    between atoms: _440  and  _441
REMARK  188  A    between atoms: _440  and  _443
REMARK  189  A    between atoms: _443  and  _444
REMARK  190  A    between atoms: _447  and  _449
REMARK  191  A    between atoms: _449  and  _450
REMARK  192  A    between atoms: _449  and  _452
REMARK  193  A    between atoms: _452  and  _453
REMARK  194  A    between atoms: _453  and  _454
REMARK  195  A    between atoms: _454  and  _455
REMARK  196  A    between atoms: _455  and  _456
REMARK  197  A    between atoms: _460  and  _462
REMARK  198  A    between atoms: _462  and  _463
REMARK  199  A    between atoms: _462  and  _465
REMARK  200  A    between atoms: _465  and  _466
REMARK  201  A    between atoms: _468  and  _470
REMARK  202  A    between atoms: _470  and  _471
REMARK  203  A    between atoms: _470  and  _473
REMARK  204  A    between atoms: _473  and  _474
REMARK  205  A    between atoms: _479  and  _481
REMARK  206  A    between atoms: _481  and  _482
REMARK  207  A    between atoms: _481  and  _484
REMARK  208  A    between atoms: _484  and  _485
REMARK  209  A    between atoms: _488  and  _490
REMARK  210  A    between atoms: _490  and  _491
REMARK  211  A    between atoms: _490  and  _493
REMARK  212  A    between atoms: _493  and  _494
REMARK  213  A    between atoms: _497  and  _499
REMARK  214  A    between atoms: _499  and  _500
REMARK  215  A    between atoms: _499  and  _502
REMARK  216  A    between atoms: _502  and  _503
REMARK  217  A    between atoms: _503  and  _504
REMARK  218  A    between atoms: _504  and  _505
REMARK  219  A    between atoms: _505  and  _506
REMARK  220  A    between atoms: _510  and  _512
REMARK  221  A    between atoms: _512  and  _513
REMARK  222  A    between atoms: _512  and  _515
REMARK  223  A    between atoms: _515  and  _516
REMARK  224  A    between atoms: _519  and  _521
REMARK  225  A    between atoms: _521  and  _522
REMARK  226  A    between atoms: _521  and  _524
REMARK  227  A    between atoms: _526  and  _528
REMARK  228  A    between atoms: _528  and  _529
REMARK  229  A    between atoms: _528  and  _531
REMARK  230  A    between atoms: _531  and  _532
REMARK  231  A    between atoms: _535  and  _537
REMARK  232  A    between atoms: _537  and  _538
REMARK  233  A    between atoms: _537  and  _540
REMARK  234  A    between atoms: _540  and  _541
REMARK  235  A    between atoms: _547  and  _549
REMARK  236  A    between atoms: _549  and  _550
REMARK  237  A    between atoms: _552  and  _554
REMARK  238  A    between atoms: _554  and  _555
REMARK  239  A    between atoms: _554  and  _557
REMARK  240  A    between atoms: _557  and  _558
REMARK  241  A    between atoms: _561  and  _563
REMARK  242  A    between atoms: _563  and  _564
REMARK                            x       y       z     vdW  Elec       q    Type
REMARK                         _______ _______ _______ _____ _____    ______ ____
ROOT
ATOM      1  CA  ASP A   4      51.676  18.874  12.878  0.00  0.00    +0.160 C 
ENDROOT
BRANCH   1   4
ATOM      2  C   CYS A   3      52.925  16.852  13.642  0.00  0.00    +0.242 C 
ATOM      3  O   CYS A   3      52.858  17.115  14.839  0.00  0.00    -0.273 OA
ATOM      4  N   ASP A   4      52.484  17.668  12.678  0.00  0.00    -0.297 N 
ATOM      5  H   ASP A   4      52.737  17.425  11.699  0.00  0.00    +0.150 HD
BRANCH   2   6
ATOM      6  CA  CYS A   3      53.664  15.611  13.140  0.00  0.00    +0.160 C 
BRANCH   6   8
ATOM      7  C   ILE A   2      55.530  14.422  14.202  0.00  0.00    +0.241 C 
ATOM      8  N   CYS A   3      54.245  14.860  14.242  0.00  0.00    -0.296 N 
ATOM      9  H   CYS A   3      53.663  14.654  15.079  0.00  0.00    +0.150 HD
ATOM     10  O   ILE A   2      56.299  14.628  13.255  0.00  0.00    -0.273 OA
BRANCH   7  11
ATOM     11  CA  ILE A   2      56.027  13.713  15.437  0.00  0.00    +0.148 C 
BRANCH  11  13
ATOM     12  C   LYS A   1      56.167  11.417  14.634  0.00  0.00    +0.238 C 
ATOM     13  N   ILE A   2      56.763  12.544  15.017  0.00  0.00    -0.297 N 
ATOM     14  H   ILE A   2      57.802  12.584  15.014  0.00  0.00    +0.150 HD
ATOM     15  O   LYS A   1      54.939  11.275  14.592  0.00  0.00    -0.274 OA
BRANCH  12  16
ATOM     16  CA  LYS A   1      57.108  10.310  14.168  0.00  0.00    +0.145 C 
BRANCH  16  17
ATOM     17  N   LYS A   1      56.747   9.053  14.805  0.00  0.00    -0.238 NA
ATOM     18  H   LYS A   1      55.752   8.752  14.794  0.00  0.00    +0.142 HD
ENDBRANCH  16  17
BRANCH  16  19
ATOM     19  CB  LYS A   1      57.036  10.219  12.654  0.00  0.00    +0.026 C 
BRANCH  19  20
ATOM     20  CG  LYS A   1      58.064   9.249  12.083  0.00  0.00    -0.000 C 
BRANCH  20  21
ATOM     21  CD  LYS A   1      58.089   9.268  10.576  0.00  0.00    -0.024 C 
BRANCH  21  22
ATOM     22  CE  LYS A   1      58.911   8.124   9.997  0.00  0.00    -0.086 C 
BRANCH  22  23
ATOM     23  NZ  LYS A   1      60.357   8.324  10.194  0.00  0.00    +0.380 N 
ATOM     24  HZ1 LYS A   1      60.561   8.387  11.212  0.00  0.00    -0.089 HD
ATOM     25  HZ2 LYS A   1      60.876   7.521   9.784  0.00  0.00    -0.089 HD
ATOM     26  HZ3 LYS A   1      60.651   9.204   9.725  0.00  0.00    -0.089 HD
ENDBRANCH  22  23
ENDBRANCH  21  22
ENDBRANCH  20  21
ENDBRANCH  19  20
ENDBRANCH  16  19
ENDBRANCH  12  16
ENDBRANCH  11  13
BRANCH  11  27
ATOM     27  CB  ILE A   2      56.905  14.659  16.291  0.00  0.00    +0.027 C 
ATOM     28  CG2 ILE A   2      56.151  15.920  16.657  0.00  0.00    +0.002 C 
BRANCH  27  29
ATOM     29  CG1 ILE A   2      57.372  13.938  17.584  0.00  0.00    +0.002 C 
ATOM     30  CD1 ILE A   2      58.503  14.593  18.284  0.00  0.00    +0.000 C 
ENDBRANCH  27  29
ENDBRANCH  11  27
ENDBRANCH   7  11
ENDBRANCH   6   8
BRANCH   6  31
ATOM     31  CB  CYS A   3      52.775  14.729  12.277  0.00  0.00    +0.098 C 
ATOM     32  SG  CYS A   3      51.181  14.318  13.010  0.00  0.00    -0.080 S 
ENDBRANCH   6  31
ENDBRANCH   2   6
ENDBRANCH   1   4
BRANCH   1  33
ATOM     33  C   ASP A   4      52.428  20.017  13.535  0.00  0.00    +0.241 C 
ATOM     34  O   ASP A   4      52.348  20.214  14.747  0.00  0.00    -0.273 OA
ATOM     35  N   PHE A   5      53.106  20.814  12.712  0.00  0.00    -0.297 N 
ATOM     36  H   PHE A   5      53.114  20.586  11.697  0.00  0.00    +0.150 HD
BRANCH  35  37
ATOM     37  CA  PHE A   5      53.840  21.995  13.166  0.00  0.00    +0.153 C 
BRANCH  37  38
ATOM     38  C   PHE A   5      53.067  23.281  12.837  0.00  0.00    +0.241 C 
ATOM     39  O   PHE A   5      53.667  24.342  12.806  0.00  0.00    -0.273 OA
ATOM     40  N   GLY A   6      51.741  23.205  12.678  0.00  0.00    -0.295 N 
ATOM     41  H   GLY A   6      51.275  22.280  12.768  0.00  0.00    +0.150 HD
BRANCH  40  42
ATOM     42  CA  GLY A   6      50.929  24.378  12.383  0.00  0.00    +0.176 C 
BRANCH  42  43
ATOM     43  C   GLY A   6      50.969  25.475  13.440  0.00  0.00    +0.243 C 
ATOM     44  N   LEU A   7      51.217  25.117  14.713  0.00  0.00    -0.297 N 
ATOM     45  H   LEU A   7      51.385  24.115  14.933  0.00  0.00    +0.150 HD
ATOM     46  O   GLY A   6      50.754  26.647  13.112  0.00  0.00    -0.273 OA
BRANCH  44  47
ATOM     47  CA  LEU A   7      51.257  26.108  15.806  0.00  0.00    +0.149 C 
BRANCH  47  48
ATOM     48  C   LEU A   7      52.691  26.299  16.309  0.00  0.00    +0.241 C 
ATOM     49  O   LEU A   7      52.894  26.982  17.312  0.00  0.00    -0.273 OA
ATOM     50  N   ALA A   8      53.682  25.809  15.581  0.00  0.00    -0.298 N 
ATOM     51  H   ALA A   8      53.459  25.354  14.673  0.00  0.00    +0.150 HD
BRANCH  50  52
ATOM     52  CA  ALA A   8      55.078  25.885  16.008  0.00  0.00    +0.137 C 
ATOM     53  CB  ALA A   8      55.953  25.004  15.152  0.00  0.00    +0.030 C 
BRANCH  52  54
ATOM     54  C   ALA A   8      55.567  27.318  15.961  0.00  0.00    +0.227 C 
ATOM     55  O   ALA A   8      55.004  28.147  15.249  0.00  0.00    -0.286 OA
ENDBRANCH  52  54
ENDBRANCH  50  52
ENDBRANCH  47  48
BRANCH  47  56
ATOM     56  CB  LEU A   7      50.342  25.632  16.959  0.00  0.00    +0.029 C 
BRANCH  56  57
ATOM     57  CG  LEU A   7      48.845  25.576  16.625  0.00  0.00    +0.002 C 
ATOM     58  CD2 LEU A   7      48.062  25.149  17.832  0.00  0.00    +0.000 C 
ATOM     59  CD1 LEU A   7      48.343  26.890  16.145  0.00  0.00    +0.000 C 
ENDBRANCH  56  57
ENDBRANCH  47  56
ENDBRANCH  44  47
ENDBRANCH  42  43
ENDBRANCH  40  42
ENDBRANCH  37  38
BRANCH  37  60
ATOM     60  CB  PHE A   5      55.246  22.004  12.550  0.00  0.00    +0.055 C 
BRANCH  60  61
ATOM     61  CG  PHE A   5      56.147  20.964  13.188  0.00  0.00    -0.020 A 
ATOM     62  CD2 PHE A   5      57.076  21.325  14.154  0.00  0.00    -0.004 A 
ATOM     63  CE2 PHE A   5      57.886  20.363  14.754  0.00  0.00    -0.000 A 
ATOM     64  CZ  PHE A   5      57.750  19.036  14.417  0.00  0.00    -0.000 A 
ATOM     65  CE1 PHE A   5      56.803  18.652  13.503  0.00  0.00    -0.000 A 
ATOM     66  CD1 PHE A   5      56.016  19.613  12.871  0.00  0.00    -0.004 A 
ENDBRANCH  60  61
ENDBRANCH  37  60
ENDBRANCH  35  37
ENDBRANCH   1  33
BRANCH   1  67
ATOM     67  CB  ASP A   4      50.363  18.599  13.615  0.00  0.00    +0.143 C 
BRANCH  67  68
ATOM     68  CG  ASP A   4      49.350  19.712  13.338  0.00  0.00    +0.367 C 
ATOM     69  OD2 ASP A   4      48.136  19.504  13.595  0.00  0.00    -0.246 OA
ATOM     70  OD1 ASP A   4      49.761  20.771  12.839  0.00  0.00    -0.246 OA
ENDBRANCH  67  68
ENDBRANCH   1  67
TORSDOF 30
REMARK  Name = ../refined-set-2016/4qyy/4qyy_pocket.pdb
REMARK  242 active torsions:
REMARK  status: ('A' for Active; 'I' for Inactive)
REMARK    1  A    between atoms: _1  and  _3
REMARK    2  A    between atoms: _3  and  _4
REMARK    3  A    between atoms: _3  and  _6
REMARK    4  A    between atoms: _6  and  _7
REMARK    5  A    between atoms: _10  and  _12
REMARK    6  A    between atoms: _12  and  _13
REMARK    7  A    between atoms: _15  and  _17
REMARK    8  A    between atoms: _17  and  _18
REMARK    9  A    between atoms: _17  and  _20
REMARK   10  A    between atoms: _20  and  _21
REMARK   11  A    between atoms: _21  and  _22
REMARK   12  A    between atoms: _25  and  _27
REMARK   13  A    between atoms: _27  and  _28
REMARK   14  A    between atoms: _30  and  _32
REMARK   15  A    between atoms: _32  and  _33
REMARK   16  A    between atoms: _36  and  _38
REMARK   17  A    between atoms: _38  and  _39
REMARK   18  A    between atoms: _38  and  _41
REMARK   19  A    between atoms: _41  and  _42
REMARK   20  A    between atoms: _47  and  _48
REMARK   21  A    between atoms: _50  and  _52
REMARK   22  A    between atoms: _52  and  _53
REMARK   23  A    between atoms: _55  and  _57
REMARK   24  A    between atoms: _57  and  _58
REMARK   25  A    between atoms: _57  and  _60
REMARK   26  A    between atoms: _60  and  _61
REMARK   27  A    between atoms: _61  and  _62
REMARK   28  A    between atoms: _64  and  _66
REMARK   29  A    between atoms: _66  and  _67
REMARK   30  A    between atoms: _66  and  _69
REMARK   31  A    between atoms: _72  and  _74
REMARK   32  A    between atoms: _74  and  _75
REMARK   33  A    between atoms: _74  and  _77
REMARK   34  A    between atoms: _79  and  _81
REMARK   35  A    between atoms: _81  and  _82
REMARK   36  A    between atoms: _81  and  _84
REMARK   37  A    between atoms: _84  and  _85
REMARK   38  A    between atoms: _87  and  _89
REMARK   39  A    between atoms: _89  and  _90
REMARK   40  A    between atoms: _89  and  _92
REMARK   41  A    between atoms: _92  and  _93
REMARK   42  A    between atoms: _93  and  _94
REMARK   43  A    between atoms: _94  and  _95
REMARK   44  A    between atoms: _104  and  _106
REMARK   45  A    between atoms: _106  and  _107
REMARK   46  A    between atoms: _106  and  _109
REMARK   47  A    between atoms: _112  and  _114
REMARK   48  A    between atoms: _114  and  _115
REMARK   49  A    between atoms: _118  and  _120
REMARK   50  A    between atoms: _120  and  _121
REMARK   51  A    between atoms: _120  and  _123
REMARK   52  A    between atoms: _123  and  _124
REMARK   53  A    between atoms: _127  and  _129
REMARK   54  A    between atoms: _129  and  _130
REMARK   55  A    between atoms: _129  and  _132
REMARK   56  A    between atoms: _132  and  _133
REMARK   57  A    between atoms: _133  and  _134
REMARK   58  A    between atoms: _134  and  _135
REMARK   59  A    between atoms: _135  and  _136
REMARK   60  A    between atoms: _140  and  _142
REMARK   61  A    between atoms: _142  and  _143
REMARK   62  A    between atoms: _142  and  _145
REMARK   63  A    between atoms: _145  and  _146
REMARK   64  A    between atoms: _146  and  _147
REMARK   65  A    between atoms: _147  and  _148
REMARK   66  A    between atoms: _148  and  _149
REMARK   67  A    between atoms: _153  and  _155
REMARK   68  A    between atoms: _155  and  _156
REMARK   69  A    between atoms: _155  and  _158
REMARK   70  A    between atoms: _158  and  _159
REMARK   71  A    between atoms: _162  and  _164
REMARK   72  A    between atoms: _164  and  _165
REMARK   73  A    between atoms: _164  and  _167
REMARK   74  A    between atoms: _167  and  _168
REMARK   75  A    between atoms: _171  and  _172
REMARK   76  A    between atoms: _177  and  _179
REMARK   77  A    between atoms: _179  and  _180
REMARK   78  A    between atoms: _179  and  _182
REMARK   79  A    between atoms: _182  and  _183
REMARK   80  A    between atoms: _189  and  _191
REMARK   81  A    between atoms: _191  and  _192
REMARK   82  A    between atoms: _191  and  _194
REMARK   83  A    between atoms: _194  and  _195
REMARK   84  A    between atoms: _195  and  _196
REMARK   85  A    between atoms: _199  and  _201
REMARK   86  A    between atoms: _201  and  _202
REMARK   87  A    between atoms: _201  and  _204
REMARK   88  A    between atoms: _204  and  _205
REMARK   89  A    between atoms: _210  and  _212
REMARK   90  A    between atoms: _212  and  _213
REMARK   91  A    between atoms: _212  and  _215
REMARK   92  A    between atoms: _215  and  _216
REMARK   93  A    between atoms: _219  and  _221
REMARK   94  A    between atoms: _221  and  _222
REMARK   95  A    between atoms: _221  and  _224
REMARK   96  A    between atoms: _224  and  _225
REMARK   97  A    between atoms: _230  and  _231
REMARK   98  A    between atoms: _233  and  _235
REMARK   99  A    between atoms: _235  and  _236
REMARK  100  A    between atoms: _235  and  _238
REMARK  101  A    between atoms: _240  and  _242
REMARK  102  A    between atoms: _242  and  _243
REMARK  103  A    between atoms: _242  and  _245
REMARK  104  A    between atoms: _245  and  _246
REMARK  105  A    between atoms: _246  and  _247
REMARK  106  A    between atoms: _252  and  _254
REMARK  107  A    between atoms: _254  and  _255
REMARK  108  A    between atoms: _254  and  _257
REMARK  109  A    between atoms: _257  and  _258
REMARK  110  A    between atoms: _258  and  _259
REMARK  111  A    between atoms: _259  and  _260
REMARK  112  A    between atoms: _269  and  _271
REMARK  113  A    between atoms: _271  and  _272
REMARK  114  A    between atoms: _271  and  _274
REMARK  115  A    between atoms: _274  and  _275
REMARK  116  A    between atoms: _278  and  _280
REMARK  117  A    between atoms: _280  and  _281
REMARK  118  A    between atoms: _280  and  _283
REMARK  119  A    between atoms: _283  and  _284
REMARK  120  A    between atoms: _287  and  _289
REMARK  121  A    between atoms: _289  and  _290
REMARK  122  A    between atoms: _289  and  _292
REMARK  123  A    between atoms: _292  and  _293
REMARK  124  A    between atoms: _293  and  _294
REMARK  125  A    between atoms: _294  and  _295
REMARK  126  A    between atoms: _304  and  _306
REMARK  127  A    between atoms: _306  and  _307
REMARK  128  A    between atoms: _306  and  _309
REMARK  129  A    between atoms: _309  and  _310
REMARK  130  A    between atoms: _310  and  _311
REMARK  131  A    between atoms: _314  and  _316
REMARK  132  A    between atoms: _316  and  _317
REMARK  133  A    between atoms: _316  and  _319
REMARK  134  A    between atoms: _319  and  _320
REMARK  135  A    between atoms: _323  and  _325
REMARK  136  A    between atoms: _325  and  _326
REMARK  137  A    between atoms: _325  and  _328
REMARK  138  A    between atoms: _328  and  _329
REMARK  139  A    between atoms: _332  and  _334
REMARK  140  A    between atoms: _334  and  _335
REMARK  141  A    between atoms: _334  and  _337
REMARK  142  A    between atoms: _337  and  _338
REMARK  143  A    between atoms: _341  and  _343
REMARK  144  A    between atoms: _343  and  _344
REMARK  145  A    between atoms: _346  and  _348
REMARK  146  A    between atoms: _348  and  _349
REMARK  147  A    between atoms: _348  and  _351
REMARK  148  A    between atoms: _351  and  _352
REMARK  149  A    between atoms: _355  and  _357
REMARK  150  A    between atoms: _357  and  _358
REMARK  151  A    between atoms: _357  and  _360
REMARK  152  A    between atoms: _363  and  _365
REMARK  153  A    between atoms: _365  and  _366
REMARK  154  A    between atoms: _365  and  _368
REMARK  155  A    between atoms: _368  and  _369
REMARK  156  A    between atoms: _372  and  _374
REMARK  157  A    between atoms: _374  and  _375
REMARK  158  A    between atoms: _374  and  _377
REMARK  159  A    between atoms: _380  and  _382
REMARK  160  A    between atoms: _382  and  _383
REMARK  161  A    between atoms: _382  and  _385
REMARK  162  A    between atoms: _385  and  _386
REMARK  163  A    between atoms: _386  and  _387
REMARK  164  A    between atoms: _392  and  _394
REMARK  165  A    between atoms: _394  and  _395
REMARK  166  A    between atoms: _394  and  _397
REMARK  167  A    between atoms: _397  and  _398
REMARK  168  A    between atoms: _401  and  _403
REMARK  169  A    between atoms: _403  and  _404
REMARK  170  A    between atoms: _403  and  _406
REMARK  171  A    between atoms: _406  and  _407
REMARK  172  A    between atoms: _410  and  _412
REMARK  173  A    between atoms: _412  and  _413
REMARK  174  A    between atoms: _412  and  _415
REMARK  175  A    between atoms: _415  and  _416
REMARK  176  A    between atoms: _416  and  _417
REMARK  177  A    between atoms: _419  and  _421
REMARK  178  A    between atoms: _421  and  _422
REMARK  179  A    between atoms: _421  and  _424
REMARK  180  A    between atoms: _424  and  _425
REMARK  181  A    between atoms: _425  and  _426
REMARK  182  A    between atoms: _429  and  _431
REMARK  183  A    between atoms: _431  and  _432
REMARK  184  A    between atoms: _431  and  _434
REMARK  185  A    between atoms: _434  and  _435
REMARK  186  A    between atoms: _438  and  _440
REMARK  187  A    between atoms: _440  and  _441
REMARK  188  A    between atoms: _440  and  _443
REMARK  189  A    between atoms: _443  and  _444
REMARK  190  A    between atoms: _447  and  _449
REMARK  191  A    between atoms: _449  and  _450
REMARK  192  A    between atoms: _449  and  _452
REMARK  193  A    between atoms: _452  and  _453
REMARK  194  A    between atoms: _453  and  _454
REMARK  195  A    between atoms: _454  and  _455
REMARK  196  A    between atoms: _455  and  _456
REMARK  197  A    between atoms: _460  and  _462
REMARK  198  A    between atoms: _462  and  _463
REMARK  199  A    between atoms: _462  and  _465
REMARK  200  A    between atoms: _465  and  _466
REMARK  201  A    between atoms: _468  and  _470
REMARK  202  A    between atoms: _470  and  _471
REMARK  203  A    between atoms: _470  and  _473
REMARK  204  A    between atoms: _473  and  _474
REMARK  205  A    between atoms: _479  and  _481
REMARK  206  A    between atoms: _481  and  _482
REMARK  207  A    between atoms: _481  and  _484
REMARK  208  A    between atoms: _484  and  _485
REMARK  209  A    between atoms: _488  and  _490
REMARK  210  A    between atoms: _490  and  _491
REMARK  211  A    between atoms: _490  and  _493
REMARK  212  A    between atoms: _493  and  _494
REMARK  213  A    between atoms: _497  and  _499
REMARK  214  A    between atoms: _499  and  _500
REMARK  215  A    between atoms: _499  and  _502
REMARK  216  A    between atoms: _502  and  _503
REMARK  217  A    between atoms: _503  and  _504
REMARK  218  A    between atoms: _504  and  _505
REMARK  219  A    between atoms: _505  and  _506
REMARK  220  A    between atoms: _510  and  _512
REMARK  221  A    between atoms: _512  and  _513
REMARK  222  A    between atoms: _512  and  _515
REMARK  223  A    between atoms: _515  and  _516
REMARK  224  A    between atoms: _519  and  _521
REMARK  225  A    between atoms: _521  and  _522
REMARK  226  A    between atoms: _521  and  _524
REMARK  227  A    between atoms: _526  and  _528
REMARK  228  A    between atoms: _528  and  _529
REMARK  229  A    between atoms: _528  and  _531
REMARK  230  A    between atoms: _531  and  _532
REMARK  231  A    between atoms: _535  and  _537
REMARK  232  A    between atoms: _537  and  _538
REMARK  233  A    between atoms: _537  and  _540
REMARK  234  A    between atoms: _540  and  _541
REMARK  235  A    between atoms: _547  and  _549
REMARK  236  A    between atoms: _549  and  _550
REMARK  237  A    between atoms: _552  and  _554
REMARK  238  A    between atoms: _554  and  _555
REMARK  239  A    between atoms: _554  and  _557
REMARK  240  A    between atoms: _557  and  _558
REMARK  241  A    between atoms: _561  and  _563
REMARK  242  A    between atoms: _563  and  _564
REMARK                            x       y       z     vdW  Elec       q    Type
REMARK                         _______ _______ _______ _____ _____    ______ ____
ROOT
ATOM      1  O   HOH     1      52.058  22.625  16.085  0.00  0.00    +0.000 OA
ENDROOT
TORSDOF 0
REMARK  Name = ../refined-set-2016/4qyy/4qyy_pocket.pdb
REMARK  242 active torsions:
REMARK  status: ('A' for Active; 'I' for Inactive)
REMARK    1  A    between atoms: _1  and  _3
REMARK    2  A    between atoms: _3  and  _4
REMARK    3  A    between atoms: _3  and  _6
REMARK    4  A    between atoms: _6  and  _7
REMARK    5  A    between atoms: _10  and  _12
REMARK    6  A    between atoms: _12  and  _13
REMARK    7  A    between atoms: _15  and  _17
REMARK    8  A    between atoms: _17  and  _18
REMARK    9  A    between atoms: _17  and  _20
REMARK   10  A    between atoms: _20  and  _21
REMARK   11  A    between atoms: _21  and  _22
REMARK   12  A    between atoms: _25  and  _27
REMARK   13  A    between atoms: _27  and  _28
REMARK   14  A    between atoms: _30  and  _32
REMARK   15  A    between atoms: _32  and  _33
REMARK   16  A    between atoms: _36  and  _38
REMARK   17  A    between atoms: _38  and  _39
REMARK   18  A    between atoms: _38  and  _41
REMARK   19  A    between atoms: _41  and  _42
REMARK   20  A    between atoms: _47  and  _48
REMARK   21  A    between atoms: _50  and  _52
REMARK   22  A    between atoms: _52  and  _53
REMARK   23  A    between atoms: _55  and  _57
REMARK   24  A    between atoms: _57  and  _58
REMARK   25  A    between atoms: _57  and  _60
REMARK   26  A    between atoms: _60  and  _61
REMARK   27  A    between atoms: _61  and  _62
REMARK   28  A    between atoms: _64  and  _66
REMARK   29  A    between atoms: _66  and  _67
REMARK   30  A    between atoms: _66  and  _69
REMARK   31  A    between atoms: _72  and  _74
REMARK   32  A    between atoms: _74  and  _75
REMARK   33  A    between atoms: _74  and  _77
REMARK   34  A    between atoms: _79  and  _81
REMARK   35  A    between atoms: _81  and  _82
REMARK   36  A    between atoms: _81  and  _84
REMARK   37  A    between atoms: _84  and  _85
REMARK   38  A    between atoms: _87  and  _89
REMARK   39  A    between atoms: _89  and  _90
REMARK   40  A    between atoms: _89  and  _92
REMARK   41  A    between atoms: _92  and  _93
REMARK   42  A    between atoms: _93  and  _94
REMARK   43  A    between atoms: _94  and  _95
REMARK   44  A    between atoms: _104  and  _106
REMARK   45  A    between atoms: _106  and  _107
REMARK   46  A    between atoms: _106  and  _109
REMARK   47  A    between atoms: _112  and  _114
REMARK   48  A    between atoms: _114  and  _115
REMARK   49  A    between atoms: _118  and  _120
REMARK   50  A    between atoms: _120  and  _121
REMARK   51  A    between atoms: _120  and  _123
REMARK   52  A    between atoms: _123  and  _124
REMARK   53  A    between atoms: _127  and  _129
REMARK   54  A    between atoms: _129  and  _130
REMARK   55  A    between atoms: _129  and  _132
REMARK   56  A    between atoms: _132  and  _133
REMARK   57  A    between atoms: _133  and  _134
REMARK   58  A    between atoms: _134  and  _135
REMARK   59  A    between atoms: _135  and  _136
REMARK   60  A    between atoms: _140  and  _142
REMARK   61  A    between atoms: _142  and  _143
REMARK   62  A    between atoms: _142  and  _145
REMARK   63  A    between atoms: _145  and  _146
REMARK   64  A    between atoms: _146  and  _147
REMARK   65  A    between atoms: _147  and  _148
REMARK   66  A    between atoms: _148  and  _149
REMARK   67  A    between atoms: _153  and  _155
REMARK   68  A    between atoms: _155  and  _156
REMARK   69  A    between atoms: _155  and  _158
REMARK   70  A    between atoms: _158  and  _159
REMARK   71  A    between atoms: _162  and  _164
REMARK   72  A    between atoms: _164  and  _165
REMARK   73  A    between atoms: _164  and  _167
REMARK   74  A    between atoms: _167  and  _168
REMARK   75  A    between atoms: _171  and  _172
REMARK   76  A    between atoms: _177  and  _179
REMARK   77  A    between atoms: _179  and  _180
REMARK   78  A    between atoms: _179  and  _182
REMARK   79  A    between atoms: _182  and  _183
REMARK   80  A    between atoms: _189  and  _191
REMARK   81  A    between atoms: _191  and  _192
REMARK   82  A    between atoms: _191  and  _194
REMARK   83  A    between atoms: _194  and  _195
REMARK   84  A    between atoms: _195  and  _196
REMARK   85  A    between atoms: _199  and  _201
REMARK   86  A    between atoms: _201  and  _202
REMARK   87  A    between atoms: _201  and  _204
REMARK   88  A    between atoms: _204  and  _205
REMARK   89  A    between atoms: _210  and  _212
REMARK   90  A    between atoms: _212  and  _213
REMARK   91  A    between atoms: _212  and  _215
REMARK   92  A    between atoms: _215  and  _216
REMARK   93  A    between atoms: _219  and  _221
REMARK   94  A    between atoms: _221  and  _222
REMARK   95  A    between atoms: _221  and  _224
REMARK   96  A    between atoms: _224  and  _225
REMARK   97  A    between atoms: _230  and  _231
REMARK   98  A    between atoms: _233  and  _235
REMARK   99  A    between atoms: _235  and  _236
REMARK  100  A    between atoms: _235  and  _238
REMARK  101  A    between atoms: _240  and  _242
REMARK  102  A    between atoms: _242  and  _243
REMARK  103  A    between atoms: _242  and  _245
REMARK  104  A    between atoms: _245  and  _246
REMARK  105  A    between atoms: _246  and  _247
REMARK  106  A    between atoms: _252  and  _254
REMARK  107  A    between atoms: _254  and  _255
REMARK  108  A    between atoms: _254  and  _257
REMARK  109  A    between atoms: _257  and  _258
REMARK  110  A    between atoms: _258  and  _259
REMARK  111  A    between atoms: _259  and  _260
REMARK  112  A    between atoms: _269  and  _271
REMARK  113  A    between atoms: _271  and  _272
REMARK  114  A    between atoms: _271  and  _274
REMARK  115  A    between atoms: _274  and  _275
REMARK  116  A    between atoms: _278  and  _280
REMARK  117  A    between atoms: _280  and  _281
REMARK  118  A    between atoms: _280  and  _283
REMARK  119  A    between atoms: _283  and  _284
REMARK  120  A    between atoms: _287  and  _289
REMARK  121  A    between atoms: _289  and  _290
REMARK  122  A    between atoms: _289  and  _292
REMARK  123  A    between atoms: _292  and  _293
REMARK  124  A    between atoms: _293  and  _294
REMARK  125  A    between atoms: _294  and  _295
REMARK  126  A    between atoms: _304  and  _306
REMARK  127  A    between atoms: _306  and  _307
REMARK  128  A    between atoms: _306  and  _309
REMARK  129  A    between atoms: _309  and  _310
REMARK  130  A    between atoms: _310  and  _311
REMARK  131  A    between atoms: _314  and  _316
REMARK  132  A    between atoms: _316  and  _317
REMARK  133  A    between atoms: _316  and  _319
REMARK  134  A    between atoms: _319  and  _320
REMARK  135  A    between atoms: _323  and  _325
REMARK  136  A    between atoms: _325  and  _326
REMARK  137  A    between atoms: _325  and  _328
REMARK  138  A    between atoms: _328  and  _329
REMARK  139  A    between atoms: _332  and  _334
REMARK  140  A    between atoms: _334  and  _335
REMARK  141  A    between atoms: _334  and  _337
REMARK  142  A    between atoms: _337  and  _338
REMARK  143  A    between atoms: _341  and  _343
REMARK  144  A    between atoms: _343  and  _344
REMARK  145  A    between atoms: _346  and  _348
REMARK  146  A    between atoms: _348  and  _349
REMARK  147  A    between atoms: _348  and  _351
REMARK  148  A    between atoms: _351  and  _352
REMARK  149  A    between atoms: _355  and  _357
REMARK  150  A    between atoms: _357  and  _358
REMARK  151  A    between atoms: _357  and  _360
REMARK  152  A    between atoms: _363  and  _365
REMARK  153  A    between atoms: _365  and  _366
REMARK  154  A    between atoms: _365  and  _368
REMARK  155  A    between atoms: _368  and  _369
REMARK  156  A    between atoms: _372  and  _374
REMARK  157  A    between atoms: _374  and  _375
REMARK  158  A    between atoms: _374  and  _377
REMARK  159  A    between atoms: _380  and  _382
REMARK  160  A    between atoms: _382  and  _383
REMARK  161  A    between atoms: _382  and  _385
REMARK  162  A    between atoms: _385  and  _386
REMARK  163  A    between atoms: _386  and  _387
REMARK  164  A    between atoms: _392  and  _394
REMARK  165  A    between atoms: _394  and  _395
REMARK  166  A    between atoms: _394  and  _397
REMARK  167  A    between atoms: _397  and  _398
REMARK  168  A    between atoms: _401  and  _403
REMARK  169  A    between atoms: _403  and  _404
REMARK  170  A    between atoms: _403  and  _406
REMARK  171  A    between atoms: _406  and  _407
REMARK  172  A    between atoms: _410  and  _412
REMARK  173  A    between atoms: _412  and  _413
REMARK  174  A    between atoms: _412  and  _415
REMARK  175  A    between atoms: _415  and  _416
REMARK  176  A    between atoms: _416  and  _417
REMARK  177  A    between atoms: _419  and  _421
REMARK  178  A    between atoms: _421  and  _422
REMARK  179  A    between atoms: _421  and  _424
REMARK  180  A    between atoms: _424  and  _425
REMARK  181  A    between atoms: _425  and  _426
REMARK  182  A    between atoms: _429  and  _431
REMARK  183  A    between atoms: _431  and  _432
REMARK  184  A    between atoms: _431  and  _434
REMARK  185  A    between atoms: _434  and  _435
REMARK  186  A    between atoms: _438  and  _440
REMARK  187  A    between atoms: _440  and  _441
REMARK  188  A    between atoms: _440  and  _443
REMARK  189  A    between atoms: _443  and  _444
REMARK  190  A    between atoms: _447  and  _449
REMARK  191  A    between atoms: _449  and  _450
REMARK  192  A    between atoms: _449  and  _452
REMARK  193  A    between atoms: _452  and  _453
REMARK  194  A    between atoms: _453  and  _454
REMARK  195  A    between atoms: _454  and  _455
REMARK  196  A    between atoms: _455  and  _456
REMARK  197  A    between atoms: _460  and  _462
REMARK  198  A    between atoms: _462  and  _463
REMARK  199  A    between atoms: _462  and  _465
REMARK  200  A    between atoms: _465  and  _466
REMARK  201  A    between atoms: _468  and  _470
REMARK  202  A    between atoms: _470  and  _471
REMARK  203  A    between atoms: _470  and  _473
REMARK  204  A    between atoms: _473  and  _474
REMARK  205  A    between atoms: _479  and  _481
REMARK  206  A    between atoms: _481  and  _482
REMARK  207  A    between atoms: _481  and  _484
REMARK  208  A    between atoms: _484  and  _485
REMARK  209  A    between atoms: _488  and  _490
REMARK  210  A    between atoms: _490  and  _491
REMARK  211  A    between atoms: _490  and  _493
REMARK  212  A    between atoms: _493  and  _494
REMARK  213  A    between atoms: _497  and  _499
REMARK  214  A    between atoms: _499  and  _500
REMARK  215  A    between atoms: _499  and  _502
REMARK  216  A    between atoms: _502  and  _503
REMARK  217  A    between atoms: _503  and  _504
REMARK  218  A    between atoms: _504  and  _505
REMARK  219  A    between atoms: _505  and  _506
REMARK  220  A    between atoms: _510  and  _512
REMARK  221  A    between atoms: _512  and  _513
REMARK  222  A    between atoms: _512  and  _515
REMARK  223  A    between atoms: _515  and  _516
REMARK  224  A    between atoms: _519  and  _521
REMARK  225  A    between atoms: _521  and  _522
REMARK  226  A    between atoms: _521  and  _524
REMARK  227  A    between atoms: _526  and  _528
REMARK  228  A    between atoms: _528  and  _529
REMARK  229  A    between atoms: _528  and  _531
REMARK  230  A    between atoms: _531  and  _532
REMARK  231  A    between atoms: _535  and  _537
REMARK  232  A    between atoms: _537  and  _538
REMARK  233  A    between atoms: _537  and  _540
REMARK  234  A    between atoms: _540  and  _541
REMARK  235  A    between atoms: _547  and  _549
REMARK  236  A    between atoms: _549  and  _550
REMARK  237  A    between atoms: _552  and  _554
REMARK  238  A    between atoms: _554  and  _555
REMARK  239  A    between atoms: _554  and  _557
REMARK  240  A    between atoms: _557  and  _558
REMARK  241  A    between atoms: _561  and  _563
REMARK  242  A    between atoms: _563  and  _564
REMARK                            x       y       z     vdW  Elec       q    Type
REMARK                         _______ _______ _______ _____ _____    ______ ____
ROOT
ATOM      1  O   HOH     1      59.374  10.816   7.618  0.00  0.00    +0.000 OA
ENDROOT
TORSDOF 0
REMARK  Name = ../refined-set-2016/4qyy/4qyy_pocket.pdb
REMARK  242 active torsions:
REMARK  status: ('A' for Active; 'I' for Inactive)
REMARK    1  A    between atoms: _1  and  _3
REMARK    2  A    between atoms: _3  and  _4
REMARK    3  A    between atoms: _3  and  _6
REMARK    4  A    between atoms: _6  and  _7
REMARK    5  A    between atoms: _10  and  _12
REMARK    6  A    between atoms: _12  and  _13
REMARK    7  A    between atoms: _15  and  _17
REMARK    8  A    between atoms: _17  and  _18
REMARK    9  A    between atoms: _17  and  _20
REMARK   10  A    between atoms: _20  and  _21
REMARK   11  A    between atoms: _21  and  _22
REMARK   12  A    between atoms: _25  and  _27
REMARK   13  A    between atoms: _27  and  _28
REMARK   14  A    between atoms: _30  and  _32
REMARK   15  A    between atoms: _32  and  _33
REMARK   16  A    between atoms: _36  and  _38
REMARK   17  A    between atoms: _38  and  _39
REMARK   18  A    between atoms: _38  and  _41
REMARK   19  A    between atoms: _41  and  _42
REMARK   20  A    between atoms: _47  and  _48
REMARK   21  A    between atoms: _50  and  _52
REMARK   22  A    between atoms: _52  and  _53
REMARK   23  A    between atoms: _55  and  _57
REMARK   24  A    between atoms: _57  and  _58
REMARK   25  A    between atoms: _57  and  _60
REMARK   26  A    between atoms: _60  and  _61
REMARK   27  A    between atoms: _61  and  _62
REMARK   28  A    between atoms: _64  and  _66
REMARK   29  A    between atoms: _66  and  _67
REMARK   30  A    between atoms: _66  and  _69
REMARK   31  A    between atoms: _72  and  _74
REMARK   32  A    between atoms: _74  and  _75
REMARK   33  A    between atoms: _74  and  _77
REMARK   34  A    between atoms: _79  and  _81
REMARK   35  A    between atoms: _81  and  _82
REMARK   36  A    between atoms: _81  and  _84
REMARK   37  A    between atoms: _84  and  _85
REMARK   38  A    between atoms: _87  and  _89
REMARK   39  A    between atoms: _89  and  _90
REMARK   40  A    between atoms: _89  and  _92
REMARK   41  A    between atoms: _92  and  _93
REMARK   42  A    between atoms: _93  and  _94
REMARK   43  A    between atoms: _94  and  _95
REMARK   44  A    between atoms: _104  and  _106
REMARK   45  A    between atoms: _106  and  _107
REMARK   46  A    between atoms: _106  and  _109
REMARK   47  A    between atoms: _112  and  _114
REMARK   48  A    between atoms: _114  and  _115
REMARK   49  A    between atoms: _118  and  _120
REMARK   50  A    between atoms: _120  and  _121
REMARK   51  A    between atoms: _120  and  _123
REMARK   52  A    between atoms: _123  and  _124
REMARK   53  A    between atoms: _127  and  _129
REMARK   54  A    between atoms: _129  and  _130
REMARK   55  A    between atoms: _129  and  _132
REMARK   56  A    between atoms: _132  and  _133
REMARK   57  A    between atoms: _133  and  _134
REMARK   58  A    between atoms: _134  and  _135
REMARK   59  A    between atoms: _135  and  _136
REMARK   60  A    between atoms: _140  and  _142
REMARK   61  A    between atoms: _142  and  _143
REMARK   62  A    between atoms: _142  and  _145
REMARK   63  A    between atoms: _145  and  _146
REMARK   64  A    between atoms: _146  and  _147
REMARK   65  A    between atoms: _147  and  _148
REMARK   66  A    between atoms: _148  and  _149
REMARK   67  A    between atoms: _153  and  _155
REMARK   68  A    between atoms: _155  and  _156
REMARK   69  A    between atoms: _155  and  _158
REMARK   70  A    between atoms: _158  and  _159
REMARK   71  A    between atoms: _162  and  _164
REMARK   72  A    between atoms: _164  and  _165
REMARK   73  A    between atoms: _164  and  _167
REMARK   74  A    between atoms: _167  and  _168
REMARK   75  A    between atoms: _171  and  _172
REMARK   76  A    between atoms: _177  and  _179
REMARK   77  A    between atoms: _179  and  _180
REMARK   78  A    between atoms: _179  and  _182
REMARK   79  A    between atoms: _182  and  _183
REMARK   80  A    between atoms: _189  and  _191
REMARK   81  A    between atoms: _191  and  _192
REMARK   82  A    between atoms: _191  and  _194
REMARK   83  A    between atoms: _194  and  _195
REMARK   84  A    between atoms: _195  and  _196
REMARK   85  A    between atoms: _199  and  _201
REMARK   86  A    between atoms: _201  and  _202
REMARK   87  A    between atoms: _201  and  _204
REMARK   88  A    between atoms: _204  and  _205
REMARK   89  A    between atoms: _210  and  _212
REMARK   90  A    between atoms: _212  and  _213
REMARK   91  A    between atoms: _212  and  _215
REMARK   92  A    between atoms: _215  and  _216
REMARK   93  A    between atoms: _219  and  _221
REMARK   94  A    between atoms: _221  and  _222
REMARK   95  A    between atoms: _221  and  _224
REMARK   96  A    between atoms: _224  and  _225
REMARK   97  A    between atoms: _230  and  _231
REMARK   98  A    between atoms: _233  and  _235
REMARK   99  A    between atoms: _235  and  _236
REMARK  100  A    between atoms: _235  and  _238
REMARK  101  A    between atoms: _240  and  _242
REMARK  102  A    between atoms: _242  and  _243
REMARK  103  A    between atoms: _242  and  _245
REMARK  104  A    between atoms: _245  and  _246
REMARK  105  A    between atoms: _246  and  _247
REMARK  106  A    between atoms: _252  and  _254
REMARK  107  A    between atoms: _254  and  _255
REMARK  108  A    between atoms: _254  and  _257
REMARK  109  A    between atoms: _257  and  _258
REMARK  110  A    between atoms: _258  and  _259
REMARK  111  A    between atoms: _259  and  _260
REMARK  112  A    between atoms: _269  and  _271
REMARK  113  A    between atoms: _271  and  _272
REMARK  114  A    between atoms: _271  and  _274
REMARK  115  A    between atoms: _274  and  _275
REMARK  116  A    between atoms: _278  and  _280
REMARK  117  A    between atoms: _280  and  _281
REMARK  118  A    between atoms: _280  and  _283
REMARK  119  A    between atoms: _283  and  _284
REMARK  120  A    between atoms: _287  and  _289
REMARK  121  A    between atoms: _289  and  _290
REMARK  122  A    between atoms: _289  and  _292
REMARK  123  A    between atoms: _292  and  _293
REMARK  124  A    between atoms: _293  and  _294
REMARK  125  A    between atoms: _294  and  _295
REMARK  126  A    between atoms: _304  and  _306
REMARK  127  A    between atoms: _306  and  _307
REMARK  128  A    between atoms: _306  and  _309
REMARK  129  A    between atoms: _309  and  _310
REMARK  130  A    between atoms: _310  and  _311
REMARK  131  A    between atoms: _314  and  _316
REMARK  132  A    between atoms: _316  and  _317
REMARK  133  A    between atoms: _316  and  _319
REMARK  134  A    between atoms: _319  and  _320
REMARK  135  A    between atoms: _323  and  _325
REMARK  136  A    between atoms: _325  and  _326
REMARK  137  A    between atoms: _325  and  _328
REMARK  138  A    between atoms: _328  and  _329
REMARK  139  A    between atoms: _332  and  _334
REMARK  140  A    between atoms: _334  and  _335
REMARK  141  A    between atoms: _334  and  _337
REMARK  142  A    between atoms: _337  and  _338
REMARK  143  A    between atoms: _341  and  _343
REMARK  144  A    between atoms: _343  and  _344
REMARK  145  A    between atoms: _346  and  _348
REMARK  146  A    between atoms: _348  and  _349
REMARK  147  A    between atoms: _348  and  _351
REMARK  148  A    between atoms: _351  and  _352
REMARK  149  A    between atoms: _355  and  _357
REMARK  150  A    between atoms: _357  and  _358
REMARK  151  A    between atoms: _357  and  _360
REMARK  152  A    between atoms: _363  and  _365
REMARK  153  A    between atoms: _365  and  _366
REMARK  154  A    between atoms: _365  and  _368
REMARK  155  A    between atoms: _368  and  _369
REMARK  156  A    between atoms: _372  and  _374
REMARK  157  A    between atoms: _374  and  _375
REMARK  158  A    between atoms: _374  and  _377
REMARK  159  A    between atoms: _380  and  _382
REMARK  160  A    between atoms: _382  and  _383
REMARK  161  A    between atoms: _382  and  _385
REMARK  162  A    between atoms: _385  and  _386
REMARK  163  A    between atoms: _386  and  _387
REMARK  164  A    between atoms: _392  and  _394
REMARK  165  A    between atoms: _394  and  _395
REMARK  166  A    between atoms: _394  and  _397
REMARK  167  A    between atoms: _397  and  _398
REMARK  168  A    between atoms: _401  and  _403
REMARK  169  A    between atoms: _403  and  _404
REMARK  170  A    between atoms: _403  and  _406
REMARK  171  A    between atoms: _406  and  _407
REMARK  172  A    between atoms: _410  and  _412
REMARK  173  A    between atoms: _412  and  _413
REMARK  174  A    between atoms: _412  and  _415
REMARK  175  A    between atoms: _415  and  _416
REMARK  176  A    between atoms: _416  and  _417
REMARK  177  A    between atoms: _419  and  _421
REMARK  178  A    between atoms: _421  and  _422
REMARK  179  A    between atoms: _421  and  _424
REMARK  180  A    between atoms: _424  and  _425
REMARK  181  A    between atoms: _425  and  _426
REMARK  182  A    between atoms: _429  and  _431
REMARK  183  A    between atoms: _431  and  _432
REMARK  184  A    between atoms: _431  and  _434
REMARK  185  A    between atoms: _434  and  _435
REMARK  186  A    between atoms: _438  and  _440
REMARK  187  A    between atoms: _440  and  _441
REMARK  188  A    between atoms: _440  and  _443
REMARK  189  A    between atoms: _443  and  _444
REMARK  190  A    between atoms: _447  and  _449
REMARK  191  A    between atoms: _449  and  _450
REMARK  192  A    between atoms: _449  and  _452
REMARK  193  A    between atoms: _452  and  _453
REMARK  194  A    between atoms: _453  and  _454
REMARK  195  A    between atoms: _454  and  _455
REMARK  196  A    between atoms: _455  and  _456
REMARK  197  A    between atoms: _460  and  _462
REMARK  198  A    between atoms: _462  and  _463
REMARK  199  A    between atoms: _462  and  _465
REMARK  200  A    between atoms: _465  and  _466
REMARK  201  A    between atoms: _468  and  _470
REMARK  202  A    between atoms: _470  and  _471
REMARK  203  A    between atoms: _470  and  _473
REMARK  204  A    between atoms: _473  and  _474
REMARK  205  A    between atoms: _479  and  _481
REMARK  206  A    between atoms: _481  and  _482
REMARK  207  A    between atoms: _481  and  _484
REMARK  208  A    between atoms: _484  and  _485
REMARK  209  A    between atoms: _488  and  _490
REMARK  210  A    between atoms: _490  and  _491
REMARK  211  A    between atoms: _490  and  _493
REMARK  212  A    between atoms: _493  and  _494
REMARK  213  A    between atoms: _497  and  _499
REMARK  214  A    between atoms: _499  and  _500
REMARK  215  A    between atoms: _499  and  _502
REMARK  216  A    between atoms: _502  and  _503
REMARK  217  A    between atoms: _503  and  _504
REMARK  218  A    between atoms: _504  and  _505
REMARK  219  A    between atoms: _505  and  _506
REMARK  220  A    between atoms: _510  and  _512
REMARK  221  A    between atoms: _512  and  _513
REMARK  222  A    between atoms: _512  and  _515
REMARK  223  A    between atoms: _515  and  _516
REMARK  224  A    between atoms: _519  and  _521
REMARK  225  A    between atoms: _521  and  _522
REMARK  226  A    between atoms: _521  and  _524
REMARK  227  A    between atoms: _526  and  _528
REMARK  228  A    between atoms: _528  and  _529
REMARK  229  A    between atoms: _528  and  _531
REMARK  230  A    between atoms: _531  and  _532
REMARK  231  A    between atoms: _535  and  _537
REMARK  232  A    between atoms: _537  and  _538
REMARK  233  A    between atoms: _537  and  _540
REMARK  234  A    between atoms: _540  and  _541
REMARK  235  A    between atoms: _547  and  _549
REMARK  236  A    between atoms: _549  and  _550
REMARK  237  A    between atoms: _552  and  _554
REMARK  238  A    between atoms: _554  and  _555
REMARK  239  A    between atoms: _554  and  _557
REMARK  240  A    between atoms: _557  and  _558
REMARK  241  A    between atoms: _561  and  _563
REMARK  242  A    between atoms: _563  and  _564
REMARK                            x       y       z     vdW  Elec       q    Type
REMARK                         _______ _______ _______ _____ _____    ______ ____
ROOT
ATOM      1  O   HOH     1      49.205  22.373  15.894  0.00  0.00    +0.000 OA
ENDROOT
TORSDOF 0
REMARK  Name = ../refined-set-2016/4qyy/4qyy_pocket.pdb
REMARK  242 active torsions:
REMARK  status: ('A' for Active; 'I' for Inactive)
REMARK    1  A    between atoms: _1  and  _3
REMARK    2  A    between atoms: _3  and  _4
REMARK    3  A    between atoms: _3  and  _6
REMARK    4  A    between atoms: _6  and  _7
REMARK    5  A    between atoms: _10  and  _12
REMARK    6  A    between atoms: _12  and  _13
REMARK    7  A    between atoms: _15  and  _17
REMARK    8  A    between atoms: _17  and  _18
REMARK    9  A    between atoms: _17  and  _20
REMARK   10  A    between atoms: _20  and  _21
REMARK   11  A    between atoms: _21  and  _22
REMARK   12  A    between atoms: _25  and  _27
REMARK   13  A    between atoms: _27  and  _28
REMARK   14  A    between atoms: _30  and  _32
REMARK   15  A    between atoms: _32  and  _33
REMARK   16  A    between atoms: _36  and  _38
REMARK   17  A    between atoms: _38  and  _39
REMARK   18  A    between atoms: _38  and  _41
REMARK   19  A    between atoms: _41  and  _42
REMARK   20  A    between atoms: _47  and  _48
REMARK   21  A    between atoms: _50  and  _52
REMARK   22  A    between atoms: _52  and  _53
REMARK   23  A    between atoms: _55  and  _57
REMARK   24  A    between atoms: _57  and  _58
REMARK   25  A    between atoms: _57  and  _60
REMARK   26  A    between atoms: _60  and  _61
REMARK   27  A    between atoms: _61  and  _62
REMARK   28  A    between atoms: _64  and  _66
REMARK   29  A    between atoms: _66  and  _67
REMARK   30  A    between atoms: _66  and  _69
REMARK   31  A    between atoms: _72  and  _74
REMARK   32  A    between atoms: _74  and  _75
REMARK   33  A    between atoms: _74  and  _77
REMARK   34  A    between atoms: _79  and  _81
REMARK   35  A    between atoms: _81  and  _82
REMARK   36  A    between atoms: _81  and  _84
REMARK   37  A    between atoms: _84  and  _85
REMARK   38  A    between atoms: _87  and  _89
REMARK   39  A    between atoms: _89  and  _90
REMARK   40  A    between atoms: _89  and  _92
REMARK   41  A    between atoms: _92  and  _93
REMARK   42  A    between atoms: _93  and  _94
REMARK   43  A    between atoms: _94  and  _95
REMARK   44  A    between atoms: _104  and  _106
REMARK   45  A    between atoms: _106  and  _107
REMARK   46  A    between atoms: _106  and  _109
REMARK   47  A    between atoms: _112  and  _114
REMARK   48  A    between atoms: _114  and  _115
REMARK   49  A    between atoms: _118  and  _120
REMARK   50  A    between atoms: _120  and  _121
REMARK   51  A    between atoms: _120  and  _123
REMARK   52  A    between atoms: _123  and  _124
REMARK   53  A    between atoms: _127  and  _129
REMARK   54  A    between atoms: _129  and  _130
REMARK   55  A    between atoms: _129  and  _132
REMARK   56  A    between atoms: _132  and  _133
REMARK   57  A    between atoms: _133  and  _134
REMARK   58  A    between atoms: _134  and  _135
REMARK   59  A    between atoms: _135  and  _136
REMARK   60  A    between atoms: _140  and  _142
REMARK   61  A    between atoms: _142  and  _143
REMARK   62  A    between atoms: _142  and  _145
REMARK   63  A    between atoms: _145  and  _146
REMARK   64  A    between atoms: _146  and  _147
REMARK   65  A    between atoms: _147  and  _148
REMARK   66  A    between atoms: _148  and  _149
REMARK   67  A    between atoms: _153  and  _155
REMARK   68  A    between atoms: _155  and  _156
REMARK   69  A    between atoms: _155  and  _158
REMARK   70  A    between atoms: _158  and  _159
REMARK   71  A    between atoms: _162  and  _164
REMARK   72  A    between atoms: _164  and  _165
REMARK   73  A    between atoms: _164  and  _167
REMARK   74  A    between atoms: _167  and  _168
REMARK   75  A    between atoms: _171  and  _172
REMARK   76  A    between atoms: _177  and  _179
REMARK   77  A    between atoms: _179  and  _180
REMARK   78  A    between atoms: _179  and  _182
REMARK   79  A    between atoms: _182  and  _183
REMARK   80  A    between atoms: _189  and  _191
REMARK   81  A    between atoms: _191  and  _192
REMARK   82  A    between atoms: _191  and  _194
REMARK   83  A    between atoms: _194  and  _195
REMARK   84  A    between atoms: _195  and  _196
REMARK   85  A    between atoms: _199  and  _201
REMARK   86  A    between atoms: _201  and  _202
REMARK   87  A    between atoms: _201  and  _204
REMARK   88  A    between atoms: _204  and  _205
REMARK   89  A    between atoms: _210  and  _212
REMARK   90  A    between atoms: _212  and  _213
REMARK   91  A    between atoms: _212  and  _215
REMARK   92  A    between atoms: _215  and  _216
REMARK   93  A    between atoms: _219  and  _221
REMARK   94  A    between atoms: _221  and  _222
REMARK   95  A    between atoms: _221  and  _224
REMARK   96  A    between atoms: _224  and  _225
REMARK   97  A    between atoms: _230  and  _231
REMARK   98  A    between atoms: _233  and  _235
REMARK   99  A    between atoms: _235  and  _236
REMARK  100  A    between atoms: _235  and  _238
REMARK  101  A    between atoms: _240  and  _242
REMARK  102  A    between atoms: _242  and  _243
REMARK  103  A    between atoms: _242  and  _245
REMARK  104  A    between atoms: _245  and  _246
REMARK  105  A    between atoms: _246  and  _247
REMARK  106  A    between atoms: _252  and  _254
REMARK  107  A    between atoms: _254  and  _255
REMARK  108  A    between atoms: _254  and  _257
REMARK  109  A    between atoms: _257  and  _258
REMARK  110  A    between atoms: _258  and  _259
REMARK  111  A    between atoms: _259  and  _260
REMARK  112  A    between atoms: _269  and  _271
REMARK  113  A    between atoms: _271  and  _272
REMARK  114  A    between atoms: _271  and  _274
REMARK  115  A    between atoms: _274  and  _275
REMARK  116  A    between atoms: _278  and  _280
REMARK  117  A    between atoms: _280  and  _281
REMARK  118  A    between atoms: _280  and  _283
REMARK  119  A    between atoms: _283  and  _284
REMARK  120  A    between atoms: _287  and  _289
REMARK  121  A    between atoms: _289  and  _290
REMARK  122  A    between atoms: _289  and  _292
REMARK  123  A    between atoms: _292  and  _293
REMARK  124  A    between atoms: _293  and  _294
REMARK  125  A    between atoms: _294  and  _295
REMARK  126  A    between atoms: _304  and  _306
REMARK  127  A    between atoms: _306  and  _307
REMARK  128  A    between atoms: _306  and  _309
REMARK  129  A    between atoms: _309  and  _310
REMARK  130  A    between atoms: _310  and  _311
REMARK  131  A    between atoms: _314  and  _316
REMARK  132  A    between atoms: _316  and  _317
REMARK  133  A    between atoms: _316  and  _319
REMARK  134  A    between atoms: _319  and  _320
REMARK  135  A    between atoms: _323  and  _325
REMARK  136  A    between atoms: _325  and  _326
REMARK  137  A    between atoms: _325  and  _328
REMARK  138  A    between atoms: _328  and  _329
REMARK  139  A    between atoms: _332  and  _334
REMARK  140  A    between atoms: _334  and  _335
REMARK  141  A    between atoms: _334  and  _337
REMARK  142  A    between atoms: _337  and  _338
REMARK  143  A    between atoms: _341  and  _343
REMARK  144  A    between atoms: _343  and  _344
REMARK  145  A    between atoms: _346  and  _348
REMARK  146  A    between atoms: _348  and  _349
REMARK  147  A    between atoms: _348  and  _351
REMARK  148  A    between atoms: _351  and  _352
REMARK  149  A    between atoms: _355  and  _357
REMARK  150  A    between atoms: _357  and  _358
REMARK  151  A    between atoms: _357  and  _360
REMARK  152  A    between atoms: _363  and  _365
REMARK  153  A    between atoms: _365  and  _366
REMARK  154  A    between atoms: _365  and  _368
REMARK  155  A    between atoms: _368  and  _369
REMARK  156  A    between atoms: _372  and  _374
REMARK  157  A    between atoms: _374  and  _375
REMARK  158  A    between atoms: _374  and  _377
REMARK  159  A    between atoms: _380  and  _382
REMARK  160  A    between atoms: _382  and  _383
REMARK  161  A    between atoms: _382  and  _385
REMARK  162  A    between atoms: _385  and  _386
REMARK  163  A    between atoms: _386  and  _387
REMARK  164  A    between atoms: _392  and  _394
REMARK  165  A    between atoms: _394  and  _395
REMARK  166  A    between atoms: _394  and  _397
REMARK  167  A    between atoms: _397  and  _398
REMARK  168  A    between atoms: _401  and  _403
REMARK  169  A    between atoms: _403  and  _404
REMARK  170  A    between atoms: _403  and  _406
REMARK  171  A    between atoms: _406  and  _407
REMARK  172  A    between atoms: _410  and  _412
REMARK  173  A    between atoms: _412  and  _413
REMARK  174  A    between atoms: _412  and  _415
REMARK  175  A    between atoms: _415  and  _416
REMARK  176  A    between atoms: _416  and  _417
REMARK  177  A    between atoms: _419  and  _421
REMARK  178  A    between atoms: _421  and  _422
REMARK  179  A    between atoms: _421  and  _424
REMARK  180  A    between atoms: _424  and  _425
REMARK  181  A    between atoms: _425  and  _426
REMARK  182  A    between atoms: _429  and  _431
REMARK  183  A    between atoms: _431  and  _432
REMARK  184  A    between atoms: _431  and  _434
REMARK  185  A    between atoms: _434  and  _435
REMARK  186  A    between atoms: _438  and  _440
REMARK  187  A    between atoms: _440  and  _441
REMARK  188  A    between atoms: _440  and  _443
REMARK  189  A    between atoms: _443  and  _444
REMARK  190  A    between atoms: _447  and  _449
REMARK  191  A    between atoms: _449  and  _450
REMARK  192  A    between atoms: _449  and  _452
REMARK  193  A    between atoms: _452  and  _453
REMARK  194  A    between atoms: _453  and  _454
REMARK  195  A    between atoms: _454  and  _455
REMARK  196  A    between atoms: _455  and  _456
REMARK  197  A    between atoms: _460  and  _462
REMARK  198  A    between atoms: _462  and  _463
REMARK  199  A    between atoms: _462  and  _465
REMARK  200  A    between atoms: _465  and  _466
REMARK  201  A    between atoms: _468  and  _470
REMARK  202  A    between atoms: _470  and  _471
REMARK  203  A    between atoms: _470  and  _473
REMARK  204  A    between atoms: _473  and  _474
REMARK  205  A    between atoms: _479  and  _481
REMARK  206  A    between atoms: _481  and  _482
REMARK  207  A    between atoms: _481  and  _484
REMARK  208  A    between atoms: _484  and  _485
REMARK  209  A    between atoms: _488  and  _490
REMARK  210  A    between atoms: _490  and  _491
REMARK  211  A    between atoms: _490  and  _493
REMARK  212  A    between atoms: _493  and  _494
REMARK  213  A    between atoms: _497  and  _499
REMARK  214  A    between atoms: _499  and  _500
REMARK  215  A    between atoms: _499  and  _502
REMARK  216  A    between atoms: _502  and  _503
REMARK  217  A    between atoms: _503  and  _504
REMARK  218  A    between atoms: _504  and  _505
REMARK  219  A    between atoms: _505  and  _506
REMARK  220  A    between atoms: _510  and  _512
REMARK  221  A    between atoms: _512  and  _513
REMARK  222  A    between atoms: _512  and  _515
REMARK  223  A    between atoms: _515  and  _516
REMARK  224  A    between atoms: _519  and  _521
REMARK  225  A    between atoms: _521  and  _522
REMARK  226  A    between atoms: _521  and  _524
REMARK  227  A    between atoms: _526  and  _528
REMARK  228  A    between atoms: _528  and  _529
REMARK  229  A    between atoms: _528  and  _531
REMARK  230  A    between atoms: _531  and  _532
REMARK  231  A    between atoms: _535  and  _537
REMARK  232  A    between atoms: _537  and  _538
REMARK  233  A    between atoms: _537  and  _540
REMARK  234  A    between atoms: _540  and  _541
REMARK  235  A    between atoms: _547  and  _549
REMARK  236  A    between atoms: _549  and  _550
REMARK  237  A    between atoms: _552  and  _554
REMARK  238  A    between atoms: _554  and  _555
REMARK  239  A    between atoms: _554  and  _557
REMARK  240  A    between atoms: _557  and  _558
REMARK  241  A    between atoms: _561  and  _563
REMARK  242  A    between atoms: _563  and  _564
REMARK                            x       y       z     vdW  Elec       q    Type
REMARK                         _______ _______ _______ _____ _____    ______ ____
ROOT
ATOM      1  O   HOH     1      57.558  12.153   5.175  0.00  0.00    +0.000 OA
ENDROOT
TORSDOF 0
REMARK  Name = ../refined-set-2016/4qyy/4qyy_pocket.pdb
REMARK  242 active torsions:
REMARK  status: ('A' for Active; 'I' for Inactive)
REMARK    1  A    between atoms: _1  and  _3
REMARK    2  A    between atoms: _3  and  _4
REMARK    3  A    between atoms: _3  and  _6
REMARK    4  A    between atoms: _6  and  _7
REMARK    5  A    between atoms: _10  and  _12
REMARK    6  A    between atoms: _12  and  _13
REMARK    7  A    between atoms: _15  and  _17
REMARK    8  A    between atoms: _17  and  _18
REMARK    9  A    between atoms: _17  and  _20
REMARK   10  A    between atoms: _20  and  _21
REMARK   11  A    between atoms: _21  and  _22
REMARK   12  A    between atoms: _25  and  _27
REMARK   13  A    between atoms: _27  and  _28
REMARK   14  A    between atoms: _30  and  _32
REMARK   15  A    between atoms: _32  and  _33
REMARK   16  A    between atoms: _36  and  _38
REMARK   17  A    between atoms: _38  and  _39
REMARK   18  A    between atoms: _38  and  _41
REMARK   19  A    between atoms: _41  and  _42
REMARK   20  A    between atoms: _47  and  _48
REMARK   21  A    between atoms: _50  and  _52
REMARK   22  A    between atoms: _52  and  _53
REMARK   23  A    between atoms: _55  and  _57
REMARK   24  A    between atoms: _57  and  _58
REMARK   25  A    between atoms: _57  and  _60
REMARK   26  A    between atoms: _60  and  _61
REMARK   27  A    between atoms: _61  and  _62
REMARK   28  A    between atoms: _64  and  _66
REMARK   29  A    between atoms: _66  and  _67
REMARK   30  A    between atoms: _66  and  _69
REMARK   31  A    between atoms: _72  and  _74
REMARK   32  A    between atoms: _74  and  _75
REMARK   33  A    between atoms: _74  and  _77
REMARK   34  A    between atoms: _79  and  _81
REMARK   35  A    between atoms: _81  and  _82
REMARK   36  A    between atoms: _81  and  _84
REMARK   37  A    between atoms: _84  and  _85
REMARK   38  A    between atoms: _87  and  _89
REMARK   39  A    between atoms: _89  and  _90
REMARK   40  A    between atoms: _89  and  _92
REMARK   41  A    between atoms: _92  and  _93
REMARK   42  A    between atoms: _93  and  _94
REMARK   43  A    between atoms: _94  and  _95
REMARK   44  A    between atoms: _104  and  _106
REMARK   45  A    between atoms: _106  and  _107
REMARK   46  A    between atoms: _106  and  _109
REMARK   47  A    between atoms: _112  and  _114
REMARK   48  A    between atoms: _114  and  _115
REMARK   49  A    between atoms: _118  and  _120
REMARK   50  A    between atoms: _120  and  _121
REMARK   51  A    between atoms: _120  and  _123
REMARK   52  A    between atoms: _123  and  _124
REMARK   53  A    between atoms: _127  and  _129
REMARK   54  A    between atoms: _129  and  _130
REMARK   55  A    between atoms: _129  and  _132
REMARK   56  A    between atoms: _132  and  _133
REMARK   57  A    between atoms: _133  and  _134
REMARK   58  A    between atoms: _134  and  _135
REMARK   59  A    between atoms: _135  and  _136
REMARK   60  A    between atoms: _140  and  _142
REMARK   61  A    between atoms: _142  and  _143
REMARK   62  A    between atoms: _142  and  _145
REMARK   63  A    between atoms: _145  and  _146
REMARK   64  A    between atoms: _146  and  _147
REMARK   65  A    between atoms: _147  and  _148
REMARK   66  A    between atoms: _148  and  _149
REMARK   67  A    between atoms: _153  and  _155
REMARK   68  A    between atoms: _155  and  _156
REMARK   69  A    between atoms: _155  and  _158
REMARK   70  A    between atoms: _158  and  _159
REMARK   71  A    between atoms: _162  and  _164
REMARK   72  A    between atoms: _164  and  _165
REMARK   73  A    between atoms: _164  and  _167
REMARK   74  A    between atoms: _167  and  _168
REMARK   75  A    between atoms: _171  and  _172
REMARK   76  A    between atoms: _177  and  _179
REMARK   77  A    between atoms: _179  and  _180
REMARK   78  A    between atoms: _179  and  _182
REMARK   79  A    between atoms: _182  and  _183
REMARK   80  A    between atoms: _189  and  _191
REMARK   81  A    between atoms: _191  and  _192
REMARK   82  A    between atoms: _191  and  _194
REMARK   83  A    between atoms: _194  and  _195
REMARK   84  A    between atoms: _195  and  _196
REMARK   85  A    between atoms: _199  and  _201
REMARK   86  A    between atoms: _201  and  _202
REMARK   87  A    between atoms: _201  and  _204
REMARK   88  A    between atoms: _204  and  _205
REMARK   89  A    between atoms: _210  and  _212
REMARK   90  A    between atoms: _212  and  _213
REMARK   91  A    between atoms: _212  and  _215
REMARK   92  A    between atoms: _215  and  _216
REMARK   93  A    between atoms: _219  and  _221
REMARK   94  A    between atoms: _221  and  _222
REMARK   95  A    between atoms: _221  and  _224
REMARK   96  A    between atoms: _224  and  _225
REMARK   97  A    between atoms: _230  and  _231
REMARK   98  A    between atoms: _233  and  _235
REMARK   99  A    between atoms: _235  and  _236
REMARK  100  A    between atoms: _235  and  _238
REMARK  101  A    between atoms: _240  and  _242
REMARK  102  A    between atoms: _242  and  _243
REMARK  103  A    between atoms: _242  and  _245
REMARK  104  A    between atoms: _245  and  _246
REMARK  105  A    between atoms: _246  and  _247
REMARK  106  A    between atoms: _252  and  _254
REMARK  107  A    between atoms: _254  and  _255
REMARK  108  A    between atoms: _254  and  _257
REMARK  109  A    between atoms: _257  and  _258
REMARK  110  A    between atoms: _258  and  _259
REMARK  111  A    between atoms: _259  and  _260
REMARK  112  A    between atoms: _269  and  _271
REMARK  113  A    between atoms: _271  and  _272
REMARK  114  A    between atoms: _271  and  _274
REMARK  115  A    between atoms: _274  and  _275
REMARK  116  A    between atoms: _278  and  _280
REMARK  117  A    between atoms: _280  and  _281
REMARK  118  A    between atoms: _280  and  _283
REMARK  119  A    between atoms: _283  and  _284
REMARK  120  A    between atoms: _287  and  _289
REMARK  121  A    between atoms: _289  and  _290
REMARK  122  A    between atoms: _289  and  _292
REMARK  123  A    between atoms: _292  and  _293
REMARK  124  A    between atoms: _293  and  _294
REMARK  125  A    between atoms: _294  and  _295
REMARK  126  A    between atoms: _304  and  _306
REMARK  127  A    between atoms: _306  and  _307
REMARK  128  A    between atoms: _306  and  _309
REMARK  129  A    between atoms: _309  and  _310
REMARK  130  A    between atoms: _310  and  _311
REMARK  131  A    between atoms: _314  and  _316
REMARK  132  A    between atoms: _316  and  _317
REMARK  133  A    between atoms: _316  and  _319
REMARK  134  A    between atoms: _319  and  _320
REMARK  135  A    between atoms: _323  and  _325
REMARK  136  A    between atoms: _325  and  _326
REMARK  137  A    between atoms: _325  and  _328
REMARK  138  A    between atoms: _328  and  _329
REMARK  139  A    between atoms: _332  and  _334
REMARK  140  A    between atoms: _334  and  _335
REMARK  141  A    between atoms: _334  and  _337
REMARK  142  A    between atoms: _337  and  _338
REMARK  143  A    between atoms: _341  and  _343
REMARK  144  A    between atoms: _343  and  _344
REMARK  145  A    between atoms: _346  and  _348
REMARK  146  A    between atoms: _348  and  _349
REMARK  147  A    between atoms: _348  and  _351
REMARK  148  A    between atoms: _351  and  _352
REMARK  149  A    between atoms: _355  and  _357
REMARK  150  A    between atoms: _357  and  _358
REMARK  151  A    between atoms: _357  and  _360
REMARK  152  A    between atoms: _363  and  _365
REMARK  153  A    between atoms: _365  and  _366
REMARK  154  A    between atoms: _365  and  _368
REMARK  155  A    between atoms: _368  and  _369
REMARK  156  A    between atoms: _372  and  _374
REMARK  157  A    between atoms: _374  and  _375
REMARK  158  A    between atoms: _374  and  _377
REMARK  159  A    between atoms: _380  and  _382
REMARK  160  A    between atoms: _382  and  _383
REMARK  161  A    between atoms: _382  and  _385
REMARK  162  A    between atoms: _385  and  _386
REMARK  163  A    between atoms: _386  and  _387
REMARK  164  A    between atoms: _392  and  _394
REMARK  165  A    between atoms: _394  and  _395
REMARK  166  A    between atoms: _394  and  _397
REMARK  167  A    between atoms: _397  and  _398
REMARK  168  A    between atoms: _401  and  _403
REMARK  169  A    between atoms: _403  and  _404
REMARK  170  A    between atoms: _403  and  _406
REMARK  171  A    between atoms: _406  and  _407
REMARK  172  A    between atoms: _410  and  _412
REMARK  173  A    between atoms: _412  and  _413
REMARK  174  A    between atoms: _412  and  _415
REMARK  175  A    between atoms: _415  and  _416
REMARK  176  A    between atoms: _416  and  _417
REMARK  177  A    between atoms: _419  and  _421
REMARK  178  A    between atoms: _421  and  _422
REMARK  179  A    between atoms: _421  and  _424
REMARK  180  A    between atoms: _424  and  _425
REMARK  181  A    between atoms: _425  and  _426
REMARK  182  A    between atoms: _429  and  _431
REMARK  183  A    between atoms: _431  and  _432
REMARK  184  A    between atoms: _431  and  _434
REMARK  185  A    between atoms: _434  and  _435
REMARK  186  A    between atoms: _438  and  _440
REMARK  187  A    between atoms: _440  and  _441
REMARK  188  A    between atoms: _440  and  _443
REMARK  189  A    between atoms: _443  and  _444
REMARK  190  A    between atoms: _447  and  _449
REMARK  191  A    between atoms: _449  and  _450
REMARK  192  A    between atoms: _449  and  _452
REMARK  193  A    between atoms: _452  and  _453
REMARK  194  A    between atoms: _453  and  _454
REMARK  195  A    between atoms: _454  and  _455
REMARK  196  A    between atoms: _455  and  _456
REMARK  197  A    between atoms: _460  and  _462
REMARK  198  A    between atoms: _462  and  _463
REMARK  199  A    between atoms: _462  and  _465
REMARK  200  A    between atoms: _465  and  _466
REMARK  201  A    between atoms: _468  and  _470
REMARK  202  A    between atoms: _470  and  _471
REMARK  203  A    between atoms: _470  and  _473
REMARK  204  A    between atoms: _473  and  _474
REMARK  205  A    between atoms: _479  and  _481
REMARK  206  A    between atoms: _481  and  _482
REMARK  207  A    between atoms: _481  and  _484
REMARK  208  A    between atoms: _484  and  _485
REMARK  209  A    between atoms: _488  and  _490
REMARK  210  A    between atoms: _490  and  _491
REMARK  211  A    between atoms: _490  and  _493
REMARK  212  A    between atoms: _493  and  _494
REMARK  213  A    between atoms: _497  and  _499
REMARK  214  A    between atoms: _499  and  _500
REMARK  215  A    between atoms: _499  and  _502
REMARK  216  A    between atoms: _502  and  _503
REMARK  217  A    between atoms: _503  and  _504
REMARK  218  A    between atoms: _504  and  _505
REMARK  219  A    between atoms: _505  and  _506
REMARK  220  A    between atoms: _510  and  _512
REMARK  221  A    between atoms: _512  and  _513
REMARK  222  A    between atoms: _512  and  _515
REMARK  223  A    between atoms: _515  and  _516
REMARK  224  A    between atoms: _519  and  _521
REMARK  225  A    between atoms: _521  and  _522
REMARK  226  A    between atoms: _521  and  _524
REMARK  227  A    between atoms: _526  and  _528
REMARK  228  A    between atoms: _528  and  _529
REMARK  229  A    between atoms: _528  and  _531
REMARK  230  A    between atoms: _531  and  _532
REMARK  231  A    between atoms: _535  and  _537
REMARK  232  A    between atoms: _537  and  _538
REMARK  233  A    between atoms: _537  and  _540
REMARK  234  A    between atoms: _540  and  _541
REMARK  235  A    between atoms: _547  and  _549
REMARK  236  A    between atoms: _549  and  _550
REMARK  237  A    between atoms: _552  and  _554
REMARK  238  A    between atoms: _554  and  _555
REMARK  239  A    between atoms: _554  and  _557
REMARK  240  A    between atoms: _557  and  _558
REMARK  241  A    between atoms: _561  and  _563
REMARK  242  A    between atoms: _563  and  _564
REMARK                            x       y       z     vdW  Elec       q    Type
REMARK                         _______ _______ _______ _____ _____    ______ ____
ROOT
ATOM      1  O   HOH     1      55.270   6.049   2.658  0.00  0.00    +0.000 OA
ENDROOT
TORSDOF 0
REMARK  Name = ../refined-set-2016/4qyy/4qyy_pocket.pdb
REMARK  242 active torsions:
REMARK  status: ('A' for Active; 'I' for Inactive)
REMARK    1  A    between atoms: _1  and  _3
REMARK    2  A    between atoms: _3  and  _4
REMARK    3  A    between atoms: _3  and  _6
REMARK    4  A    between atoms: _6  and  _7
REMARK    5  A    between atoms: _10  and  _12
REMARK    6  A    between atoms: _12  and  _13
REMARK    7  A    between atoms: _15  and  _17
REMARK    8  A    between atoms: _17  and  _18
REMARK    9  A    between atoms: _17  and  _20
REMARK   10  A    between atoms: _20  and  _21
REMARK   11  A    between atoms: _21  and  _22
REMARK   12  A    between atoms: _25  and  _27
REMARK   13  A    between atoms: _27  and  _28
REMARK   14  A    between atoms: _30  and  _32
REMARK   15  A    between atoms: _32  and  _33
REMARK   16  A    between atoms: _36  and  _38
REMARK   17  A    between atoms: _38  and  _39
REMARK   18  A    between atoms: _38  and  _41
REMARK   19  A    between atoms: _41  and  _42
REMARK   20  A    between atoms: _47  and  _48
REMARK   21  A    between atoms: _50  and  _52
REMARK   22  A    between atoms: _52  and  _53
REMARK   23  A    between atoms: _55  and  _57
REMARK   24  A    between atoms: _57  and  _58
REMARK   25  A    between atoms: _57  and  _60
REMARK   26  A    between atoms: _60  and  _61
REMARK   27  A    between atoms: _61  and  _62
REMARK   28  A    between atoms: _64  and  _66
REMARK   29  A    between atoms: _66  and  _67
REMARK   30  A    between atoms: _66  and  _69
REMARK   31  A    between atoms: _72  and  _74
REMARK   32  A    between atoms: _74  and  _75
REMARK   33  A    between atoms: _74  and  _77
REMARK   34  A    between atoms: _79  and  _81
REMARK   35  A    between atoms: _81  and  _82
REMARK   36  A    between atoms: _81  and  _84
REMARK   37  A    between atoms: _84  and  _85
REMARK   38  A    between atoms: _87  and  _89
REMARK   39  A    between atoms: _89  and  _90
REMARK   40  A    between atoms: _89  and  _92
REMARK   41  A    between atoms: _92  and  _93
REMARK   42  A    between atoms: _93  and  _94
REMARK   43  A    between atoms: _94  and  _95
REMARK   44  A    between atoms: _104  and  _106
REMARK   45  A    between atoms: _106  and  _107
REMARK   46  A    between atoms: _106  and  _109
REMARK   47  A    between atoms: _112  and  _114
REMARK   48  A    between atoms: _114  and  _115
REMARK   49  A    between atoms: _118  and  _120
REMARK   50  A    between atoms: _120  and  _121
REMARK   51  A    between atoms: _120  and  _123
REMARK   52  A    between atoms: _123  and  _124
REMARK   53  A    between atoms: _127  and  _129
REMARK   54  A    between atoms: _129  and  _130
REMARK   55  A    between atoms: _129  and  _132
REMARK   56  A    between atoms: _132  and  _133
REMARK   57  A    between atoms: _133  and  _134
REMARK   58  A    between atoms: _134  and  _135
REMARK   59  A    between atoms: _135  and  _136
REMARK   60  A    between atoms: _140  and  _142
REMARK   61  A    between atoms: _142  and  _143
REMARK   62  A    between atoms: _142  and  _145
REMARK   63  A    between atoms: _145  and  _146
REMARK   64  A    between atoms: _146  and  _147
REMARK   65  A    between atoms: _147  and  _148
REMARK   66  A    between atoms: _148  and  _149
REMARK   67  A    between atoms: _153  and  _155
REMARK   68  A    between atoms: _155  and  _156
REMARK   69  A    between atoms: _155  and  _158
REMARK   70  A    between atoms: _158  and  _159
REMARK   71  A    between atoms: _162  and  _164
REMARK   72  A    between atoms: _164  and  _165
REMARK   73  A    between atoms: _164  and  _167
REMARK   74  A    between atoms: _167  and  _168
REMARK   75  A    between atoms: _171  and  _172
REMARK   76  A    between atoms: _177  and  _179
REMARK   77  A    between atoms: _179  and  _180
REMARK   78  A    between atoms: _179  and  _182
REMARK   79  A    between atoms: _182  and  _183
REMARK   80  A    between atoms: _189  and  _191
REMARK   81  A    between atoms: _191  and  _192
REMARK   82  A    between atoms: _191  and  _194
REMARK   83  A    between atoms: _194  and  _195
REMARK   84  A    between atoms: _195  and  _196
REMARK   85  A    between atoms: _199  and  _201
REMARK   86  A    between atoms: _201  and  _202
REMARK   87  A    between atoms: _201  and  _204
REMARK   88  A    between atoms: _204  and  _205
REMARK   89  A    between atoms: _210  and  _212
REMARK   90  A    between atoms: _212  and  _213
REMARK   91  A    between atoms: _212  and  _215
REMARK   92  A    between atoms: _215  and  _216
REMARK   93  A    between atoms: _219  and  _221
REMARK   94  A    between atoms: _221  and  _222
REMARK   95  A    between atoms: _221  and  _224
REMARK   96  A    between atoms: _224  and  _225
REMARK   97  A    between atoms: _230  and  _231
REMARK   98  A    between atoms: _233  and  _235
REMARK   99  A    between atoms: _235  and  _236
REMARK  100  A    between atoms: _235  and  _238
REMARK  101  A    between atoms: _240  and  _242
REMARK  102  A    between atoms: _242  and  _243
REMARK  103  A    between atoms: _242  and  _245
REMARK  104  A    between atoms: _245  and  _246
REMARK  105  A    between atoms: _246  and  _247
REMARK  106  A    between atoms: _252  and  _254
REMARK  107  A    between atoms: _254  and  _255
REMARK  108  A    between atoms: _254  and  _257
REMARK  109  A    between atoms: _257  and  _258
REMARK  110  A    between atoms: _258  and  _259
REMARK  111  A    between atoms: _259  and  _260
REMARK  112  A    between atoms: _269  and  _271
REMARK  113  A    between atoms: _271  and  _272
REMARK  114  A    between atoms: _271  and  _274
REMARK  115  A    between atoms: _274  and  _275
REMARK  116  A    between atoms: _278  and  _280
REMARK  117  A    between atoms: _280  and  _281
REMARK  118  A    between atoms: _280  and  _283
REMARK  119  A    between atoms: _283  and  _284
REMARK  120  A    between atoms: _287  and  _289
REMARK  121  A    between atoms: _289  and  _290
REMARK  122  A    between atoms: _289  and  _292
REMARK  123  A    between atoms: _292  and  _293
REMARK  124  A    between atoms: _293  and  _294
REMARK  125  A    between atoms: _294  and  _295
REMARK  126  A    between atoms: _304  and  _306
REMARK  127  A    between atoms: _306  and  _307
REMARK  128  A    between atoms: _306  and  _309
REMARK  129  A    between atoms: _309  and  _310
REMARK  130  A    between atoms: _310  and  _311
REMARK  131  A    between atoms: _314  and  _316
REMARK  132  A    between atoms: _316  and  _317
REMARK  133  A    between atoms: _316  and  _319
REMARK  134  A    between atoms: _319  and  _320
REMARK  135  A    between atoms: _323  and  _325
REMARK  136  A    between atoms: _325  and  _326
REMARK  137  A    between atoms: _325  and  _328
REMARK  138  A    between atoms: _328  and  _329
REMARK  139  A    between atoms: _332  and  _334
REMARK  140  A    between atoms: _334  and  _335
REMARK  141  A    between atoms: _334  and  _337
REMARK  142  A    between atoms: _337  and  _338
REMARK  143  A    between atoms: _341  and  _343
REMARK  144  A    between atoms: _343  and  _344
REMARK  145  A    between atoms: _346  and  _348
REMARK  146  A    between atoms: _348  and  _349
REMARK  147  A    between atoms: _348  and  _351
REMARK  148  A    between atoms: _351  and  _352
REMARK  149  A    between atoms: _355  and  _357
REMARK  150  A    between atoms: _357  and  _358
REMARK  151  A    between atoms: _357  and  _360
REMARK  152  A    between atoms: _363  and  _365
REMARK  153  A    between atoms: _365  and  _366
REMARK  154  A    between atoms: _365  and  _368
REMARK  155  A    between atoms: _368  and  _369
REMARK  156  A    between atoms: _372  and  _374
REMARK  157  A    between atoms: _374  and  _375
REMARK  158  A    between atoms: _374  and  _377
REMARK  159  A    between atoms: _380  and  _382
REMARK  160  A    between atoms: _382  and  _383
REMARK  161  A    between atoms: _382  and  _385
REMARK  162  A    between atoms: _385  and  _386
REMARK  163  A    between atoms: _386  and  _387
REMARK  164  A    between atoms: _392  and  _394
REMARK  165  A    between atoms: _394  and  _395
REMARK  166  A    between atoms: _394  and  _397
REMARK  167  A    between atoms: _397  and  _398
REMARK  168  A    between atoms: _401  and  _403
REMARK  169  A    between atoms: _403  and  _404
REMARK  170  A    between atoms: _403  and  _406
REMARK  171  A    between atoms: _406  and  _407
REMARK  172  A    between atoms: _410  and  _412
REMARK  173  A    between atoms: _412  and  _413
REMARK  174  A    between atoms: _412  and  _415
REMARK  175  A    between atoms: _415  and  _416
REMARK  176  A    between atoms: _416  and  _417
REMARK  177  A    between atoms: _419  and  _421
REMARK  178  A    between atoms: _421  and  _422
REMARK  179  A    between atoms: _421  and  _424
REMARK  180  A    between atoms: _424  and  _425
REMARK  181  A    between atoms: _425  and  _426
REMARK  182  A    between atoms: _429  and  _431
REMARK  183  A    between atoms: _431  and  _432
REMARK  184  A    between atoms: _431  and  _434
REMARK  185  A    between atoms: _434  and  _435
REMARK  186  A    between atoms: _438  and  _440
REMARK  187  A    between atoms: _440  and  _441
REMARK  188  A    between atoms: _440  and  _443
REMARK  189  A    between atoms: _443  and  _444
REMARK  190  A    between atoms: _447  and  _449
REMARK  191  A    between atoms: _449  and  _450
REMARK  192  A    between atoms: _449  and  _452
REMARK  193  A    between atoms: _452  and  _453
REMARK  194  A    between atoms: _453  and  _454
REMARK  195  A    between atoms: _454  and  _455
REMARK  196  A    between atoms: _455  and  _456
REMARK  197  A    between atoms: _460  and  _462
REMARK  198  A    between atoms: _462  and  _463
REMARK  199  A    between atoms: _462  and  _465
REMARK  200  A    between atoms: _465  and  _466
REMARK  201  A    between atoms: _468  and  _470
REMARK  202  A    between atoms: _470  and  _471
REMARK  203  A    between atoms: _470  and  _473
REMARK  204  A    between atoms: _473  and  _474
REMARK  205  A    between atoms: _479  and  _481
REMARK  206  A    between atoms: _481  and  _482
REMARK  207  A    between atoms: _481  and  _484
REMARK  208  A    between atoms: _484  and  _485
REMARK  209  A    between atoms: _488  and  _490
REMARK  210  A    between atoms: _490  and  _491
REMARK  211  A    between atoms: _490  and  _493
REMARK  212  A    between atoms: _493  and  _494
REMARK  213  A    between atoms: _497  and  _499
REMARK  214  A    between atoms: _499  and  _500
REMARK  215  A    between atoms: _499  and  _502
REMARK  216  A    between atoms: _502  and  _503
REMARK  217  A    between atoms: _503  and  _504
REMARK  218  A    between atoms: _504  and  _505
REMARK  219  A    between atoms: _505  and  _506
REMARK  220  A    between atoms: _510  and  _512
REMARK  221  A    between atoms: _512  and  _513
REMARK  222  A    between atoms: _512  and  _515
REMARK  223  A    between atoms: _515  and  _516
REMARK  224  A    between atoms: _519  and  _521
REMARK  225  A    between atoms: _521  and  _522
REMARK  226  A    between atoms: _521  and  _524
REMARK  227  A    between atoms: _526  and  _528
REMARK  228  A    between atoms: _528  and  _529
REMARK  229  A    between atoms: _528  and  _531
REMARK  230  A    between atoms: _531  and  _532
REMARK  231  A    between atoms: _535  and  _537
REMARK  232  A    between atoms: _537  and  _538
REMARK  233  A    between atoms: _537  and  _540
REMARK  234  A    between atoms: _540  and  _541
REMARK  235  A    between atoms: _547  and  _549
REMARK  236  A    between atoms: _549  and  _550
REMARK  237  A    between atoms: _552  and  _554
REMARK  238  A    between atoms: _554  and  _555
REMARK  239  A    between atoms: _554  and  _557
REMARK  240  A    between atoms: _557  and  _558
REMARK  241  A    between atoms: _561  and  _563
REMARK  242  A    between atoms: _563  and  _564
REMARK                            x       y       z     vdW  Elec       q    Type
REMARK                         _______ _______ _______ _____ _____    ______ ____
ROOT
ATOM      1  O   HOH     1      40.955  29.174   2.773  0.00  0.00    +0.000 OA
ENDROOT
TORSDOF 0
REMARK  Name = ../refined-set-2016/4qyy/4qyy_pocket.pdb
REMARK  242 active torsions:
REMARK  status: ('A' for Active; 'I' for Inactive)
REMARK    1  A    between atoms: _1  and  _3
REMARK    2  A    between atoms: _3  and  _4
REMARK    3  A    between atoms: _3  and  _6
REMARK    4  A    between atoms: _6  and  _7
REMARK    5  A    between atoms: _10  and  _12
REMARK    6  A    between atoms: _12  and  _13
REMARK    7  A    between atoms: _15  and  _17
REMARK    8  A    between atoms: _17  and  _18
REMARK    9  A    between atoms: _17  and  _20
REMARK   10  A    between atoms: _20  and  _21
REMARK   11  A    between atoms: _21  and  _22
REMARK   12  A    between atoms: _25  and  _27
REMARK   13  A    between atoms: _27  and  _28
REMARK   14  A    between atoms: _30  and  _32
REMARK   15  A    between atoms: _32  and  _33
REMARK   16  A    between atoms: _36  and  _38
REMARK   17  A    between atoms: _38  and  _39
REMARK   18  A    between atoms: _38  and  _41
REMARK   19  A    between atoms: _41  and  _42
REMARK   20  A    between atoms: _47  and  _48
REMARK   21  A    between atoms: _50  and  _52
REMARK   22  A    between atoms: _52  and  _53
REMARK   23  A    between atoms: _55  and  _57
REMARK   24  A    between atoms: _57  and  _58
REMARK   25  A    between atoms: _57  and  _60
REMARK   26  A    between atoms: _60  and  _61
REMARK   27  A    between atoms: _61  and  _62
REMARK   28  A    between atoms: _64  and  _66
REMARK   29  A    between atoms: _66  and  _67
REMARK   30  A    between atoms: _66  and  _69
REMARK   31  A    between atoms: _72  and  _74
REMARK   32  A    between atoms: _74  and  _75
REMARK   33  A    between atoms: _74  and  _77
REMARK   34  A    between atoms: _79  and  _81
REMARK   35  A    between atoms: _81  and  _82
REMARK   36  A    between atoms: _81  and  _84
REMARK   37  A    between atoms: _84  and  _85
REMARK   38  A    between atoms: _87  and  _89
REMARK   39  A    between atoms: _89  and  _90
REMARK   40  A    between atoms: _89  and  _92
REMARK   41  A    between atoms: _92  and  _93
REMARK   42  A    between atoms: _93  and  _94
REMARK   43  A    between atoms: _94  and  _95
REMARK   44  A    between atoms: _104  and  _106
REMARK   45  A    between atoms: _106  and  _107
REMARK   46  A    between atoms: _106  and  _109
REMARK   47  A    between atoms: _112  and  _114
REMARK   48  A    between atoms: _114  and  _115
REMARK   49  A    between atoms: _118  and  _120
REMARK   50  A    between atoms: _120  and  _121
REMARK   51  A    between atoms: _120  and  _123
REMARK   52  A    between atoms: _123  and  _124
REMARK   53  A    between atoms: _127  and  _129
REMARK   54  A    between atoms: _129  and  _130
REMARK   55  A    between atoms: _129  and  _132
REMARK   56  A    between atoms: _132  and  _133
REMARK   57  A    between atoms: _133  and  _134
REMARK   58  A    between atoms: _134  and  _135
REMARK   59  A    between atoms: _135  and  _136
REMARK   60  A    between atoms: _140  and  _142
REMARK   61  A    between atoms: _142  and  _143
REMARK   62  A    between atoms: _142  and  _145
REMARK   63  A    between atoms: _145  and  _146
REMARK   64  A    between atoms: _146  and  _147
REMARK   65  A    between atoms: _147  and  _148
REMARK   66  A    between atoms: _148  and  _149
REMARK   67  A    between atoms: _153  and  _155
REMARK   68  A    between atoms: _155  and  _156
REMARK   69  A    between atoms: _155  and  _158
REMARK   70  A    between atoms: _158  and  _159
REMARK   71  A    between atoms: _162  and  _164
REMARK   72  A    between atoms: _164  and  _165
REMARK   73  A    between atoms: _164  and  _167
REMARK   74  A    between atoms: _167  and  _168
REMARK   75  A    between atoms: _171  and  _172
REMARK   76  A    between atoms: _177  and  _179
REMARK   77  A    between atoms: _179  and  _180
REMARK   78  A    between atoms: _179  and  _182
REMARK   79  A    between atoms: _182  and  _183
REMARK   80  A    between atoms: _189  and  _191
REMARK   81  A    between atoms: _191  and  _192
REMARK   82  A    between atoms: _191  and  _194
REMARK   83  A    between atoms: _194  and  _195
REMARK   84  A    between atoms: _195  and  _196
REMARK   85  A    between atoms: _199  and  _201
REMARK   86  A    between atoms: _201  and  _202
REMARK   87  A    between atoms: _201  and  _204
REMARK   88  A    between atoms: _204  and  _205
REMARK   89  A    between atoms: _210  and  _212
REMARK   90  A    between atoms: _212  and  _213
REMARK   91  A    between atoms: _212  and  _215
REMARK   92  A    between atoms: _215  and  _216
REMARK   93  A    between atoms: _219  and  _221
REMARK   94  A    between atoms: _221  and  _222
REMARK   95  A    between atoms: _221  and  _224
REMARK   96  A    between atoms: _224  and  _225
REMARK   97  A    between atoms: _230  and  _231
REMARK   98  A    between atoms: _233  and  _235
REMARK   99  A    between atoms: _235  and  _236
REMARK  100  A    between atoms: _235  and  _238
REMARK  101  A    between atoms: _240  and  _242
REMARK  102  A    between atoms: _242  and  _243
REMARK  103  A    between atoms: _242  and  _245
REMARK  104  A    between atoms: _245  and  _246
REMARK  105  A    between atoms: _246  and  _247
REMARK  106  A    between atoms: _252  and  _254
REMARK  107  A    between atoms: _254  and  _255
REMARK  108  A    between atoms: _254  and  _257
REMARK  109  A    between atoms: _257  and  _258
REMARK  110  A    between atoms: _258  and  _259
REMARK  111  A    between atoms: _259  and  _260
REMARK  112  A    between atoms: _269  and  _271
REMARK  113  A    between atoms: _271  and  _272
REMARK  114  A    between atoms: _271  and  _274
REMARK  115  A    between atoms: _274  and  _275
REMARK  116  A    between atoms: _278  and  _280
REMARK  117  A    between atoms: _280  and  _281
REMARK  118  A    between atoms: _280  and  _283
REMARK  119  A    between atoms: _283  and  _284
REMARK  120  A    between atoms: _287  and  _289
REMARK  121  A    between atoms: _289  and  _290
REMARK  122  A    between atoms: _289  and  _292
REMARK  123  A    between atoms: _292  and  _293
REMARK  124  A    between atoms: _293  and  _294
REMARK  125  A    between atoms: _294  and  _295
REMARK  126  A    between atoms: _304  and  _306
REMARK  127  A    between atoms: _306  and  _307
REMARK  128  A    between atoms: _306  and  _309
REMARK  129  A    between atoms: _309  and  _310
REMARK  130  A    between atoms: _310  and  _311
REMARK  131  A    between atoms: _314  and  _316
REMARK  132  A    between atoms: _316  and  _317
REMARK  133  A    between atoms: _316  and  _319
REMARK  134  A    between atoms: _319  and  _320
REMARK  135  A    between atoms: _323  and  _325
REMARK  136  A    between atoms: _325  and  _326
REMARK  137  A    between atoms: _325  and  _328
REMARK  138  A    between atoms: _328  and  _329
REMARK  139  A    between atoms: _332  and  _334
REMARK  140  A    between atoms: _334  and  _335
REMARK  141  A    between atoms: _334  and  _337
REMARK  142  A    between atoms: _337  and  _338
REMARK  143  A    between atoms: _341  and  _343
REMARK  144  A    between atoms: _343  and  _344
REMARK  145  A    between atoms: _346  and  _348
REMARK  146  A    between atoms: _348  and  _349
REMARK  147  A    between atoms: _348  and  _351
REMARK  148  A    between atoms: _351  and  _352
REMARK  149  A    between atoms: _355  and  _357
REMARK  150  A    between atoms: _357  and  _358
REMARK  151  A    between atoms: _357  and  _360
REMARK  152  A    between atoms: _363  and  _365
REMARK  153  A    between atoms: _365  and  _366
REMARK  154  A    between atoms: _365  and  _368
REMARK  155  A    between atoms: _368  and  _369
REMARK  156  A    between atoms: _372  and  _374
REMARK  157  A    between atoms: _374  and  _375
REMARK  158  A    between atoms: _374  and  _377
REMARK  159  A    between atoms: _380  and  _382
REMARK  160  A    between atoms: _382  and  _383
REMARK  161  A    between atoms: _382  and  _385
REMARK  162  A    between atoms: _385  and  _386
REMARK  163  A    between atoms: _386  and  _387
REMARK  164  A    between atoms: _392  and  _394
REMARK  165  A    between atoms: _394  and  _395
REMARK  166  A    between atoms: _394  and  _397
REMARK  167  A    between atoms: _397  and  _398
REMARK  168  A    between atoms: _401  and  _403
REMARK  169  A    between atoms: _403  and  _404
REMARK  170  A    between atoms: _403  and  _406
REMARK  171  A    between atoms: _406  and  _407
REMARK  172  A    between atoms: _410  and  _412
REMARK  173  A    between atoms: _412  and  _413
REMARK  174  A    between atoms: _412  and  _415
REMARK  175  A    between atoms: _415  and  _416
REMARK  176  A    between atoms: _416  and  _417
REMARK  177  A    between atoms: _419  and  _421
REMARK  178  A    between atoms: _421  and  _422
REMARK  179  A    between atoms: _421  and  _424
REMARK  180  A    between atoms: _424  and  _425
REMARK  181  A    between atoms: _425  and  _426
REMARK  182  A    between atoms: _429  and  _431
REMARK  183  A    between atoms: _431  and  _432
REMARK  184  A    between atoms: _431  and  _434
REMARK  185  A    between atoms: _434  and  _435
REMARK  186  A    between atoms: _438  and  _440
REMARK  187  A    between atoms: _440  and  _441
REMARK  188  A    between atoms: _440  and  _443
REMARK  189  A    between atoms: _443  and  _444
REMARK  190  A    between atoms: _447  and  _449
REMARK  191  A    between atoms: _449  and  _450
REMARK  192  A    between atoms: _449  and  _452
REMARK  193  A    between atoms: _452  and  _453
REMARK  194  A    between atoms: _453  and  _454
REMARK  195  A    between atoms: _454  and  _455
REMARK  196  A    between atoms: _455  and  _456
REMARK  197  A    between atoms: _460  and  _462
REMARK  198  A    between atoms: _462  and  _463
REMARK  199  A    between atoms: _462  and  _465
REMARK  200  A    between atoms: _465  and  _466
REMARK  201  A    between atoms: _468  and  _470
REMARK  202  A    between atoms: _470  and  _471
REMARK  203  A    between atoms: _470  and  _473
REMARK  204  A    between atoms: _473  and  _474
REMARK  205  A    between atoms: _479  and  _481
REMARK  206  A    between atoms: _481  and  _482
REMARK  207  A    between atoms: _481  and  _484
REMARK  208  A    between atoms: _484  and  _485
REMARK  209  A    between atoms: _488  and  _490
REMARK  210  A    between atoms: _490  and  _491
REMARK  211  A    between atoms: _490  and  _493
REMARK  212  A    between atoms: _493  and  _494
REMARK  213  A    between atoms: _497  and  _499
REMARK  214  A    between atoms: _499  and  _500
REMARK  215  A    between atoms: _499  and  _502
REMARK  216  A    between atoms: _502  and  _503
REMARK  217  A    between atoms: _503  and  _504
REMARK  218  A    between atoms: _504  and  _505
REMARK  219  A    between atoms: _505  and  _506
REMARK  220  A    between atoms: _510  and  _512
REMARK  221  A    between atoms: _512  and  _513
REMARK  222  A    between atoms: _512  and  _515
REMARK  223  A    between atoms: _515  and  _516
REMARK  224  A    between atoms: _519  and  _521
REMARK  225  A    between atoms: _521  and  _522
REMARK  226  A    between atoms: _521  and  _524
REMARK  227  A    between atoms: _526  and  _528
REMARK  228  A    between atoms: _528  and  _529
REMARK  229  A    between atoms: _528  and  _531
REMARK  230  A    between atoms: _531  and  _532
REMARK  231  A    between atoms: _535  and  _537
REMARK  232  A    between atoms: _537  and  _538
REMARK  233  A    between atoms: _537  and  _540
REMARK  234  A    between atoms: _540  and  _541
REMARK  235  A    between atoms: _547  and  _549
REMARK  236  A    between atoms: _549  and  _550
REMARK  237  A    between atoms: _552  and  _554
REMARK  238  A    between atoms: _554  and  _555
REMARK  239  A    between atoms: _554  and  _557
REMARK  240  A    between atoms: _557  and  _558
REMARK  241  A    between atoms: _561  and  _563
REMARK  242  A    between atoms: _563  and  _564
REMARK                            x       y       z     vdW  Elec       q    Type
REMARK                         _______ _______ _______ _____ _____    ______ ____
ROOT
ATOM      1  O   HOH     1      52.759  17.036   9.830  0.00  0.00    +0.000 OA
ENDROOT
TORSDOF 0
REMARK  Name = ../refined-set-2016/4qyy/4qyy_pocket.pdb
REMARK  242 active torsions:
REMARK  status: ('A' for Active; 'I' for Inactive)
REMARK    1  A    between atoms: _1  and  _3
REMARK    2  A    between atoms: _3  and  _4
REMARK    3  A    between atoms: _3  and  _6
REMARK    4  A    between atoms: _6  and  _7
REMARK    5  A    between atoms: _10  and  _12
REMARK    6  A    between atoms: _12  and  _13
REMARK    7  A    between atoms: _15  and  _17
REMARK    8  A    between atoms: _17  and  _18
REMARK    9  A    between atoms: _17  and  _20
REMARK   10  A    between atoms: _20  and  _21
REMARK   11  A    between atoms: _21  and  _22
REMARK   12  A    between atoms: _25  and  _27
REMARK   13  A    between atoms: _27  and  _28
REMARK   14  A    between atoms: _30  and  _32
REMARK   15  A    between atoms: _32  and  _33
REMARK   16  A    between atoms: _36  and  _38
REMARK   17  A    between atoms: _38  and  _39
REMARK   18  A    between atoms: _38  and  _41
REMARK   19  A    between atoms: _41  and  _42
REMARK   20  A    between atoms: _47  and  _48
REMARK   21  A    between atoms: _50  and  _52
REMARK   22  A    between atoms: _52  and  _53
REMARK   23  A    between atoms: _55  and  _57
REMARK   24  A    between atoms: _57  and  _58
REMARK   25  A    between atoms: _57  and  _60
REMARK   26  A    between atoms: _60  and  _61
REMARK   27  A    between atoms: _61  and  _62
REMARK   28  A    between atoms: _64  and  _66
REMARK   29  A    between atoms: _66  and  _67
REMARK   30  A    between atoms: _66  and  _69
REMARK   31  A    between atoms: _72  and  _74
REMARK   32  A    between atoms: _74  and  _75
REMARK   33  A    between atoms: _74  and  _77
REMARK   34  A    between atoms: _79  and  _81
REMARK   35  A    between atoms: _81  and  _82
REMARK   36  A    between atoms: _81  and  _84
REMARK   37  A    between atoms: _84  and  _85
REMARK   38  A    between atoms: _87  and  _89
REMARK   39  A    between atoms: _89  and  _90
REMARK   40  A    between atoms: _89  and  _92
REMARK   41  A    between atoms: _92  and  _93
REMARK   42  A    between atoms: _93  and  _94
REMARK   43  A    between atoms: _94  and  _95
REMARK   44  A    between atoms: _104  and  _106
REMARK   45  A    between atoms: _106  and  _107
REMARK   46  A    between atoms: _106  and  _109
REMARK   47  A    between atoms: _112  and  _114
REMARK   48  A    between atoms: _114  and  _115
REMARK   49  A    between atoms: _118  and  _120
REMARK   50  A    between atoms: _120  and  _121
REMARK   51  A    between atoms: _120  and  _123
REMARK   52  A    between atoms: _123  and  _124
REMARK   53  A    between atoms: _127  and  _129
REMARK   54  A    between atoms: _129  and  _130
REMARK   55  A    between atoms: _129  and  _132
REMARK   56  A    between atoms: _132  and  _133
REMARK   57  A    between atoms: _133  and  _134
REMARK   58  A    between atoms: _134  and  _135
REMARK   59  A    between atoms: _135  and  _136
REMARK   60  A    between atoms: _140  and  _142
REMARK   61  A    between atoms: _142  and  _143
REMARK   62  A    between atoms: _142  and  _145
REMARK   63  A    between atoms: _145  and  _146
REMARK   64  A    between atoms: _146  and  _147
REMARK   65  A    between atoms: _147  and  _148
REMARK   66  A    between atoms: _148  and  _149
REMARK   67  A    between atoms: _153  and  _155
REMARK   68  A    between atoms: _155  and  _156
REMARK   69  A    between atoms: _155  and  _158
REMARK   70  A    between atoms: _158  and  _159
REMARK   71  A    between atoms: _162  and  _164
REMARK   72  A    between atoms: _164  and  _165
REMARK   73  A    between atoms: _164  and  _167
REMARK   74  A    between atoms: _167  and  _168
REMARK   75  A    between atoms: _171  and  _172
REMARK   76  A    between atoms: _177  and  _179
REMARK   77  A    between atoms: _179  and  _180
REMARK   78  A    between atoms: _179  and  _182
REMARK   79  A    between atoms: _182  and  _183
REMARK   80  A    between atoms: _189  and  _191
REMARK   81  A    between atoms: _191  and  _192
REMARK   82  A    between atoms: _191  and  _194
REMARK   83  A    between atoms: _194  and  _195
REMARK   84  A    between atoms: _195  and  _196
REMARK   85  A    between atoms: _199  and  _201
REMARK   86  A    between atoms: _201  and  _202
REMARK   87  A    between atoms: _201  and  _204
REMARK   88  A    between atoms: _204  and  _205
REMARK   89  A    between atoms: _210  and  _212
REMARK   90  A    between atoms: _212  and  _213
REMARK   91  A    between atoms: _212  and  _215
REMARK   92  A    between atoms: _215  and  _216
REMARK   93  A    between atoms: _219  and  _221
REMARK   94  A    between atoms: _221  and  _222
REMARK   95  A    between atoms: _221  and  _224
REMARK   96  A    between atoms: _224  and  _225
REMARK   97  A    between atoms: _230  and  _231
REMARK   98  A    between atoms: _233  and  _235
REMARK   99  A    between atoms: _235  and  _236
REMARK  100  A    between atoms: _235  and  _238
REMARK  101  A    between atoms: _240  and  _242
REMARK  102  A    between atoms: _242  and  _243
REMARK  103  A    between atoms: _242  and  _245
REMARK  104  A    between atoms: _245  and  _246
REMARK  105  A    between atoms: _246  and  _247
REMARK  106  A    between atoms: _252  and  _254
REMARK  107  A    between atoms: _254  and  _255
REMARK  108  A    between atoms: _254  and  _257
REMARK  109  A    between atoms: _257  and  _258
REMARK  110  A    between atoms: _258  and  _259
REMARK  111  A    between atoms: _259  and  _260
REMARK  112  A    between atoms: _269  and  _271
REMARK  113  A    between atoms: _271  and  _272
REMARK  114  A    between atoms: _271  and  _274
REMARK  115  A    between atoms: _274  and  _275
REMARK  116  A    between atoms: _278  and  _280
REMARK  117  A    between atoms: _280  and  _281
REMARK  118  A    between atoms: _280  and  _283
REMARK  119  A    between atoms: _283  and  _284
REMARK  120  A    between atoms: _287  and  _289
REMARK  121  A    between atoms: _289  and  _290
REMARK  122  A    between atoms: _289  and  _292
REMARK  123  A    between atoms: _292  and  _293
REMARK  124  A    between atoms: _293  and  _294
REMARK  125  A    between atoms: _294  and  _295
REMARK  126  A    between atoms: _304  and  _306
REMARK  127  A    between atoms: _306  and  _307
REMARK  128  A    between atoms: _306  and  _309
REMARK  129  A    between atoms: _309  and  _310
REMARK  130  A    between atoms: _310  and  _311
REMARK  131  A    between atoms: _314  and  _316
REMARK  132  A    between atoms: _316  and  _317
REMARK  133  A    between atoms: _316  and  _319
REMARK  134  A    between atoms: _319  and  _320
REMARK  135  A    between atoms: _323  and  _325
REMARK  136  A    between atoms: _325  and  _326
REMARK  137  A    between atoms: _325  and  _328
REMARK  138  A    between atoms: _328  and  _329
REMARK  139  A    between atoms: _332  and  _334
REMARK  140  A    between atoms: _334  and  _335
REMARK  141  A    between atoms: _334  and  _337
REMARK  142  A    between atoms: _337  and  _338
REMARK  143  A    between atoms: _341  and  _343
REMARK  144  A    between atoms: _343  and  _344
REMARK  145  A    between atoms: _346  and  _348
REMARK  146  A    between atoms: _348  and  _349
REMARK  147  A    between atoms: _348  and  _351
REMARK  148  A    between atoms: _351  and  _352
REMARK  149  A    between atoms: _355  and  _357
REMARK  150  A    between atoms: _357  and  _358
REMARK  151  A    between atoms: _357  and  _360
REMARK  152  A    between atoms: _363  and  _365
REMARK  153  A    between atoms: _365  and  _366
REMARK  154  A    between atoms: _365  and  _368
REMARK  155  A    between atoms: _368  and  _369
REMARK  156  A    between atoms: _372  and  _374
REMARK  157  A    between atoms: _374  and  _375
REMARK  158  A    between atoms: _374  and  _377
REMARK  159  A    between atoms: _380  and  _382
REMARK  160  A    between atoms: _382  and  _383
REMARK  161  A    between atoms: _382  and  _385
REMARK  162  A    between atoms: _385  and  _386
REMARK  163  A    between atoms: _386  and  _387
REMARK  164  A    between atoms: _392  and  _394
REMARK  165  A    between atoms: _394  and  _395
REMARK  166  A    between atoms: _394  and  _397
REMARK  167  A    between atoms: _397  and  _398
REMARK  168  A    between atoms: _401  and  _403
REMARK  169  A    between atoms: _403  and  _404
REMARK  170  A    between atoms: _403  and  _406
REMARK  171  A    between atoms: _406  and  _407
REMARK  172  A    between atoms: _410  and  _412
REMARK  173  A    between atoms: _412  and  _413
REMARK  174  A    between atoms: _412  and  _415
REMARK  175  A    between atoms: _415  and  _416
REMARK  176  A    between atoms: _416  and  _417
REMARK  177  A    between atoms: _419  and  _421
REMARK  178  A    between atoms: _421  and  _422
REMARK  179  A    between atoms: _421  and  _424
REMARK  180  A    between atoms: _424  and  _425
REMARK  181  A    between atoms: _425  and  _426
REMARK  182  A    between atoms: _429  and  _431
REMARK  183  A    between atoms: _431  and  _432
REMARK  184  A    between atoms: _431  and  _434
REMARK  185  A    between atoms: _434  and  _435
REMARK  186  A    between atoms: _438  and  _440
REMARK  187  A    between atoms: _440  and  _441
REMARK  188  A    between atoms: _440  and  _443
REMARK  189  A    between atoms: _443  and  _444
REMARK  190  A    between atoms: _447  and  _449
REMARK  191  A    between atoms: _449  and  _450
REMARK  192  A    between atoms: _449  and  _452
REMARK  193  A    between atoms: _452  and  _453
REMARK  194  A    between atoms: _453  and  _454
REMARK  195  A    between atoms: _454  and  _455
REMARK  196  A    between atoms: _455  and  _456
REMARK  197  A    between atoms: _460  and  _462
REMARK  198  A    between atoms: _462  and  _463
REMARK  199  A    between atoms: _462  and  _465
REMARK  200  A    between atoms: _465  and  _466
REMARK  201  A    between atoms: _468  and  _470
REMARK  202  A    between atoms: _470  and  _471
REMARK  203  A    between atoms: _470  and  _473
REMARK  204  A    between atoms: _473  and  _474
REMARK  205  A    between atoms: _479  and  _481
REMARK  206  A    between atoms: _481  and  _482
REMARK  207  A    between atoms: _481  and  _484
REMARK  208  A    between atoms: _484  and  _485
REMARK  209  A    between atoms: _488  and  _490
REMARK  210  A    between atoms: _490  and  _491
REMARK  211  A    between atoms: _490  and  _493
REMARK  212  A    between atoms: _493  and  _494
REMARK  213  A    between atoms: _497  and  _499
REMARK  214  A    between atoms: _499  and  _500
REMARK  215  A    between atoms: _499  and  _502
REMARK  216  A    between atoms: _502  and  _503
REMARK  217  A    between atoms: _503  and  _504
REMARK  218  A    between atoms: _504  and  _505
REMARK  219  A    between atoms: _505  and  _506
REMARK  220  A    between atoms: _510  and  _512
REMARK  221  A    between atoms: _512  and  _513
REMARK  222  A    between atoms: _512  and  _515
REMARK  223  A    between atoms: _515  and  _516
REMARK  224  A    between atoms: _519  and  _521
REMARK  225  A    between atoms: _521  and  _522
REMARK  226  A    between atoms: _521  and  _524
REMARK  227  A    between atoms: _526  and  _528
REMARK  228  A    between atoms: _528  and  _529
REMARK  229  A    between atoms: _528  and  _531
REMARK  230  A    between atoms: _531  and  _532
REMARK  231  A    between atoms: _535  and  _537
REMARK  232  A    between atoms: _537  and  _538
REMARK  233  A    between atoms: _537  and  _540
REMARK  234  A    between atoms: _540  and  _541
REMARK  235  A    between atoms: _547  and  _549
REMARK  236  A    between atoms: _549  and  _550
REMARK  237  A    between atoms: _552  and  _554
REMARK  238  A    between atoms: _554  and  _555
REMARK  239  A    between atoms: _554  and  _557
REMARK  240  A    between atoms: _557  and  _558
REMARK  241  A    between atoms: _561  and  _563
REMARK  242  A    between atoms: _563  and  _564
REMARK                            x       y       z     vdW  Elec       q    Type
REMARK                         _______ _______ _______ _____ _____    ______ ____
ROOT
ATOM      1  O   HOH     1      41.479  21.140   1.633  0.00  0.00    +0.000 OA
ENDROOT
TORSDOF 0
REMARK  Name = ../refined-set-2016/4qyy/4qyy_pocket.pdb
REMARK  242 active torsions:
REMARK  status: ('A' for Active; 'I' for Inactive)
REMARK    1  A    between atoms: _1  and  _3
REMARK    2  A    between atoms: _3  and  _4
REMARK    3  A    between atoms: _3  and  _6
REMARK    4  A    between atoms: _6  and  _7
REMARK    5  A    between atoms: _10  and  _12
REMARK    6  A    between atoms: _12  and  _13
REMARK    7  A    between atoms: _15  and  _17
REMARK    8  A    between atoms: _17  and  _18
REMARK    9  A    between atoms: _17  and  _20
REMARK   10  A    between atoms: _20  and  _21
REMARK   11  A    between atoms: _21  and  _22
REMARK   12  A    between atoms: _25  and  _27
REMARK   13  A    between atoms: _27  and  _28
REMARK   14  A    between atoms: _30  and  _32
REMARK   15  A    between atoms: _32  and  _33
REMARK   16  A    between atoms: _36  and  _38
REMARK   17  A    between atoms: _38  and  _39
REMARK   18  A    between atoms: _38  and  _41
REMARK   19  A    between atoms: _41  and  _42
REMARK   20  A    between atoms: _47  and  _48
REMARK   21  A    between atoms: _50  and  _52
REMARK   22  A    between atoms: _52  and  _53
REMARK   23  A    between atoms: _55  and  _57
REMARK   24  A    between atoms: _57  and  _58
REMARK   25  A    between atoms: _57  and  _60
REMARK   26  A    between atoms: _60  and  _61
REMARK   27  A    between atoms: _61  and  _62
REMARK   28  A    between atoms: _64  and  _66
REMARK   29  A    between atoms: _66  and  _67
REMARK   30  A    between atoms: _66  and  _69
REMARK   31  A    between atoms: _72  and  _74
REMARK   32  A    between atoms: _74  and  _75
REMARK   33  A    between atoms: _74  and  _77
REMARK   34  A    between atoms: _79  and  _81
REMARK   35  A    between atoms: _81  and  _82
REMARK   36  A    between atoms: _81  and  _84
REMARK   37  A    between atoms: _84  and  _85
REMARK   38  A    between atoms: _87  and  _89
REMARK   39  A    between atoms: _89  and  _90
REMARK   40  A    between atoms: _89  and  _92
REMARK   41  A    between atoms: _92  and  _93
REMARK   42  A    between atoms: _93  and  _94
REMARK   43  A    between atoms: _94  and  _95
REMARK   44  A    between atoms: _104  and  _106
REMARK   45  A    between atoms: _106  and  _107
REMARK   46  A    between atoms: _106  and  _109
REMARK   47  A    between atoms: _112  and  _114
REMARK   48  A    between atoms: _114  and  _115
REMARK   49  A    between atoms: _118  and  _120
REMARK   50  A    between atoms: _120  and  _121
REMARK   51  A    between atoms: _120  and  _123
REMARK   52  A    between atoms: _123  and  _124
REMARK   53  A    between atoms: _127  and  _129
REMARK   54  A    between atoms: _129  and  _130
REMARK   55  A    between atoms: _129  and  _132
REMARK   56  A    between atoms: _132  and  _133
REMARK   57  A    between atoms: _133  and  _134
REMARK   58  A    between atoms: _134  and  _135
REMARK   59  A    between atoms: _135  and  _136
REMARK   60  A    between atoms: _140  and  _142
REMARK   61  A    between atoms: _142  and  _143
REMARK   62  A    between atoms: _142  and  _145
REMARK   63  A    between atoms: _145  and  _146
REMARK   64  A    between atoms: _146  and  _147
REMARK   65  A    between atoms: _147  and  _148
REMARK   66  A    between atoms: _148  and  _149
REMARK   67  A    between atoms: _153  and  _155
REMARK   68  A    between atoms: _155  and  _156
REMARK   69  A    between atoms: _155  and  _158
REMARK   70  A    between atoms: _158  and  _159
REMARK   71  A    between atoms: _162  and  _164
REMARK   72  A    between atoms: _164  and  _165
REMARK   73  A    between atoms: _164  and  _167
REMARK   74  A    between atoms: _167  and  _168
REMARK   75  A    between atoms: _171  and  _172
REMARK   76  A    between atoms: _177  and  _179
REMARK   77  A    between atoms: _179  and  _180
REMARK   78  A    between atoms: _179  and  _182
REMARK   79  A    between atoms: _182  and  _183
REMARK   80  A    between atoms: _189  and  _191
REMARK   81  A    between atoms: _191  and  _192
REMARK   82  A    between atoms: _191  and  _194
REMARK   83  A    between atoms: _194  and  _195
REMARK   84  A    between atoms: _195  and  _196
REMARK   85  A    between atoms: _199  and  _201
REMARK   86  A    between atoms: _201  and  _202
REMARK   87  A    between atoms: _201  and  _204
REMARK   88  A    between atoms: _204  and  _205
REMARK   89  A    between atoms: _210  and  _212
REMARK   90  A    between atoms: _212  and  _213
REMARK   91  A    between atoms: _212  and  _215
REMARK   92  A    between atoms: _215  and  _216
REMARK   93  A    between atoms: _219  and  _221
REMARK   94  A    between atoms: _221  and  _222
REMARK   95  A    between atoms: _221  and  _224
REMARK   96  A    between atoms: _224  and  _225
REMARK   97  A    between atoms: _230  and  _231
REMARK   98  A    between atoms: _233  and  _235
REMARK   99  A    between atoms: _235  and  _236
REMARK  100  A    between atoms: _235  and  _238
REMARK  101  A    between atoms: _240  and  _242
REMARK  102  A    between atoms: _242  and  _243
REMARK  103  A    between atoms: _242  and  _245
REMARK  104  A    between atoms: _245  and  _246
REMARK  105  A    between atoms: _246  and  _247
REMARK  106  A    between atoms: _252  and  _254
REMARK  107  A    between atoms: _254  and  _255
REMARK  108  A    between atoms: _254  and  _257
REMARK  109  A    between atoms: _257  and  _258
REMARK  110  A    between atoms: _258  and  _259
REMARK  111  A    between atoms: _259  and  _260
REMARK  112  A    between atoms: _269  and  _271
REMARK  113  A    between atoms: _271  and  _272
REMARK  114  A    between atoms: _271  and  _274
REMARK  115  A    between atoms: _274  and  _275
REMARK  116  A    between atoms: _278  and  _280
REMARK  117  A    between atoms: _280  and  _281
REMARK  118  A    between atoms: _280  and  _283
REMARK  119  A    between atoms: _283  and  _284
REMARK  120  A    between atoms: _287  and  _289
REMARK  121  A    between atoms: _289  and  _290
REMARK  122  A    between atoms: _289  and  _292
REMARK  123  A    between atoms: _292  and  _293
REMARK  124  A    between atoms: _293  and  _294
REMARK  125  A    between atoms: _294  and  _295
REMARK  126  A    between atoms: _304  and  _306
REMARK  127  A    between atoms: _306  and  _307
REMARK  128  A    between atoms: _306  and  _309
REMARK  129  A    between atoms: _309  and  _310
REMARK  130  A    between atoms: _310  and  _311
REMARK  131  A    between atoms: _314  and  _316
REMARK  132  A    between atoms: _316  and  _317
REMARK  133  A    between atoms: _316  and  _319
REMARK  134  A    between atoms: _319  and  _320
REMARK  135  A    between atoms: _323  and  _325
REMARK  136  A    between atoms: _325  and  _326
REMARK  137  A    between atoms: _325  and  _328
REMARK  138  A    between atoms: _328  and  _329
REMARK  139  A    between atoms: _332  and  _334
REMARK  140  A    between atoms: _334  and  _335
REMARK  141  A    between atoms: _334  and  _337
REMARK  142  A    between atoms: _337  and  _338
REMARK  143  A    between atoms: _341  and  _343
REMARK  144  A    between atoms: _343  and  _344
REMARK  145  A    between atoms: _346  and  _348
REMARK  146  A    between atoms: _348  and  _349
REMARK  147  A    between atoms: _348  and  _351
REMARK  148  A    between atoms: _351  and  _352
REMARK  149  A    between atoms: _355  and  _357
REMARK  150  A    between atoms: _357  and  _358
REMARK  151  A    between atoms: _357  and  _360
REMARK  152  A    between atoms: _363  and  _365
REMARK  153  A    between atoms: _365  and  _366
REMARK  154  A    between atoms: _365  and  _368
REMARK  155  A    between atoms: _368  and  _369
REMARK  156  A    between atoms: _372  and  _374
REMARK  157  A    between atoms: _374  and  _375
REMARK  158  A    between atoms: _374  and  _377
REMARK  159  A    between atoms: _380  and  _382
REMARK  160  A    between atoms: _382  and  _383
REMARK  161  A    between atoms: _382  and  _385
REMARK  162  A    between atoms: _385  and  _386
REMARK  163  A    between atoms: _386  and  _387
REMARK  164  A    between atoms: _392  and  _394
REMARK  165  A    between atoms: _394  and  _395
REMARK  166  A    between atoms: _394  and  _397
REMARK  167  A    between atoms: _397  and  _398
REMARK  168  A    between atoms: _401  and  _403
REMARK  169  A    between atoms: _403  and  _404
REMARK  170  A    between atoms: _403  and  _406
REMARK  171  A    between atoms: _406  and  _407
REMARK  172  A    between atoms: _410  and  _412
REMARK  173  A    between atoms: _412  and  _413
REMARK  174  A    between atoms: _412  and  _415
REMARK  175  A    between atoms: _415  and  _416
REMARK  176  A    between atoms: _416  and  _417
REMARK  177  A    between atoms: _419  and  _421
REMARK  178  A    between atoms: _421  and  _422
REMARK  179  A    between atoms: _421  and  _424
REMARK  180  A    between atoms: _424  and  _425
REMARK  181  A    between atoms: _425  and  _426
REMARK  182  A    between atoms: _429  and  _431
REMARK  183  A    between atoms: _431  and  _432
REMARK  184  A    between atoms: _431  and  _434
REMARK  185  A    between atoms: _434  and  _435
REMARK  186  A    between atoms: _438  and  _440
REMARK  187  A    between atoms: _440  and  _441
REMARK  188  A    between atoms: _440  and  _443
REMARK  189  A    between atoms: _443  and  _444
REMARK  190  A    between atoms: _447  and  _449
REMARK  191  A    between atoms: _449  and  _450
REMARK  192  A    between atoms: _449  and  _452
REMARK  193  A    between atoms: _452  and  _453
REMARK  194  A    between atoms: _453  and  _454
REMARK  195  A    between atoms: _454  and  _455
REMARK  196  A    between atoms: _455  and  _456
REMARK  197  A    between atoms: _460  and  _462
REMARK  198  A    between atoms: _462  and  _463
REMARK  199  A    between atoms: _462  and  _465
REMARK  200  A    between atoms: _465  and  _466
REMARK  201  A    between atoms: _468  and  _470
REMARK  202  A    between atoms: _470  and  _471
REMARK  203  A    between atoms: _470  and  _473
REMARK  204  A    between atoms: _473  and  _474
REMARK  205  A    between atoms: _479  and  _481
REMARK  206  A    between atoms: _481  and  _482
REMARK  207  A    between atoms: _481  and  _484
REMARK  208  A    between atoms: _484  and  _485
REMARK  209  A    between atoms: _488  and  _490
REMARK  210  A    between atoms: _490  and  _491
REMARK  211  A    between atoms: _490  and  _493
REMARK  212  A    between atoms: _493  and  _494
REMARK  213  A    between atoms: _497  and  _499
REMARK  214  A    between atoms: _499  and  _500
REMARK  215  A    between atoms: _499  and  _502
REMARK  216  A    between atoms: _502  and  _503
REMARK  217  A    between atoms: _503  and  _504
REMARK  218  A    between atoms: _504  and  _505
REMARK  219  A    between atoms: _505  and  _506
REMARK  220  A    between atoms: _510  and  _512
REMARK  221  A    between atoms: _512  and  _513
REMARK  222  A    between atoms: _512  and  _515
REMARK  223  A    between atoms: _515  and  _516
REMARK  224  A    between atoms: _519  and  _521
REMARK  225  A    between atoms: _521  and  _522
REMARK  226  A    between atoms: _521  and  _524
REMARK  227  A    between atoms: _526  and  _528
REMARK  228  A    between atoms: _528  and  _529
REMARK  229  A    between atoms: _528  and  _531
REMARK  230  A    between atoms: _531  and  _532
REMARK  231  A    between atoms: _535  and  _537
REMARK  232  A    between atoms: _537  and  _538
REMARK  233  A    between atoms: _537  and  _540
REMARK  234  A    between atoms: _540  and  _541
REMARK  235  A    between atoms: _547  and  _549
REMARK  236  A    between atoms: _549  and  _550
REMARK  237  A    between atoms: _552  and  _554
REMARK  238  A    between atoms: _554  and  _555
REMARK  239  A    between atoms: _554  and  _557
REMARK  240  A    between atoms: _557  and  _558
REMARK  241  A    between atoms: _561  and  _563
REMARK  242  A    between atoms: _563  and  _564
REMARK                            x       y       z     vdW  Elec       q    Type
REMARK                         _______ _______ _______ _____ _____    ______ ____
ROOT
ATOM      1  O   HOH     1      42.466  23.791   4.404  0.00  0.00    +0.000 OA
ENDROOT
TORSDOF 0
REMARK  Name = ../refined-set-2016/4qyy/4qyy_pocket.pdb
REMARK  242 active torsions:
REMARK  status: ('A' for Active; 'I' for Inactive)
REMARK    1  A    between atoms: _1  and  _3
REMARK    2  A    between atoms: _3  and  _4
REMARK    3  A    between atoms: _3  and  _6
REMARK    4  A    between atoms: _6  and  _7
REMARK    5  A    between atoms: _10  and  _12
REMARK    6  A    between atoms: _12  and  _13
REMARK    7  A    between atoms: _15  and  _17
REMARK    8  A    between atoms: _17  and  _18
REMARK    9  A    between atoms: _17  and  _20
REMARK   10  A    between atoms: _20  and  _21
REMARK   11  A    between atoms: _21  and  _22
REMARK   12  A    between atoms: _25  and  _27
REMARK   13  A    between atoms: _27  and  _28
REMARK   14  A    between atoms: _30  and  _32
REMARK   15  A    between atoms: _32  and  _33
REMARK   16  A    between atoms: _36  and  _38
REMARK   17  A    between atoms: _38  and  _39
REMARK   18  A    between atoms: _38  and  _41
REMARK   19  A    between atoms: _41  and  _42
REMARK   20  A    between atoms: _47  and  _48
REMARK   21  A    between atoms: _50  and  _52
REMARK   22  A    between atoms: _52  and  _53
REMARK   23  A    between atoms: _55  and  _57
REMARK   24  A    between atoms: _57  and  _58
REMARK   25  A    between atoms: _57  and  _60
REMARK   26  A    between atoms: _60  and  _61
REMARK   27  A    between atoms: _61  and  _62
REMARK   28  A    between atoms: _64  and  _66
REMARK   29  A    between atoms: _66  and  _67
REMARK   30  A    between atoms: _66  and  _69
REMARK   31  A    between atoms: _72  and  _74
REMARK   32  A    between atoms: _74  and  _75
REMARK   33  A    between atoms: _74  and  _77
REMARK   34  A    between atoms: _79  and  _81
REMARK   35  A    between atoms: _81  and  _82
REMARK   36  A    between atoms: _81  and  _84
REMARK   37  A    between atoms: _84  and  _85
REMARK   38  A    between atoms: _87  and  _89
REMARK   39  A    between atoms: _89  and  _90
REMARK   40  A    between atoms: _89  and  _92
REMARK   41  A    between atoms: _92  and  _93
REMARK   42  A    between atoms: _93  and  _94
REMARK   43  A    between atoms: _94  and  _95
REMARK   44  A    between atoms: _104  and  _106
REMARK   45  A    between atoms: _106  and  _107
REMARK   46  A    between atoms: _106  and  _109
REMARK   47  A    between atoms: _112  and  _114
REMARK   48  A    between atoms: _114  and  _115
REMARK   49  A    between atoms: _118  and  _120
REMARK   50  A    between atoms: _120  and  _121
REMARK   51  A    between atoms: _120  and  _123
REMARK   52  A    between atoms: _123  and  _124
REMARK   53  A    between atoms: _127  and  _129
REMARK   54  A    between atoms: _129  and  _130
REMARK   55  A    between atoms: _129  and  _132
REMARK   56  A    between atoms: _132  and  _133
REMARK   57  A    between atoms: _133  and  _134
REMARK   58  A    between atoms: _134  and  _135
REMARK   59  A    between atoms: _135  and  _136
REMARK   60  A    between atoms: _140  and  _142
REMARK   61  A    between atoms: _142  and  _143
REMARK   62  A    between atoms: _142  and  _145
REMARK   63  A    between atoms: _145  and  _146
REMARK   64  A    between atoms: _146  and  _147
REMARK   65  A    between atoms: _147  and  _148
REMARK   66  A    between atoms: _148  and  _149
REMARK   67  A    between atoms: _153  and  _155
REMARK   68  A    between atoms: _155  and  _156
REMARK   69  A    between atoms: _155  and  _158
REMARK   70  A    between atoms: _158  and  _159
REMARK   71  A    between atoms: _162  and  _164
REMARK   72  A    between atoms: _164  and  _165
REMARK   73  A    between atoms: _164  and  _167
REMARK   74  A    between atoms: _167  and  _168
REMARK   75  A    between atoms: _171  and  _172
REMARK   76  A    between atoms: _177  and  _179
REMARK   77  A    between atoms: _179  and  _180
REMARK   78  A    between atoms: _179  and  _182
REMARK   79  A    between atoms: _182  and  _183
REMARK   80  A    between atoms: _189  and  _191
REMARK   81  A    between atoms: _191  and  _192
REMARK   82  A    between atoms: _191  and  _194
REMARK   83  A    between atoms: _194  and  _195
REMARK   84  A    between atoms: _195  and  _196
REMARK   85  A    between atoms: _199  and  _201
REMARK   86  A    between atoms: _201  and  _202
REMARK   87  A    between atoms: _201  and  _204
REMARK   88  A    between atoms: _204  and  _205
REMARK   89  A    between atoms: _210  and  _212
REMARK   90  A    between atoms: _212  and  _213
REMARK   91  A    between atoms: _212  and  _215
REMARK   92  A    between atoms: _215  and  _216
REMARK   93  A    between atoms: _219  and  _221
REMARK   94  A    between atoms: _221  and  _222
REMARK   95  A    between atoms: _221  and  _224
REMARK   96  A    between atoms: _224  and  _225
REMARK   97  A    between atoms: _230  and  _231
REMARK   98  A    between atoms: _233  and  _235
REMARK   99  A    between atoms: _235  and  _236
REMARK  100  A    between atoms: _235  and  _238
REMARK  101  A    between atoms: _240  and  _242
REMARK  102  A    between atoms: _242  and  _243
REMARK  103  A    between atoms: _242  and  _245
REMARK  104  A    between atoms: _245  and  _246
REMARK  105  A    between atoms: _246  and  _247
REMARK  106  A    between atoms: _252  and  _254
REMARK  107  A    between atoms: _254  and  _255
REMARK  108  A    between atoms: _254  and  _257
REMARK  109  A    between atoms: _257  and  _258
REMARK  110  A    between atoms: _258  and  _259
REMARK  111  A    between atoms: _259  and  _260
REMARK  112  A    between atoms: _269  and  _271
REMARK  113  A    between atoms: _271  and  _272
REMARK  114  A    between atoms: _271  and  _274
REMARK  115  A    between atoms: _274  and  _275
REMARK  116  A    between atoms: _278  and  _280
REMARK  117  A    between atoms: _280  and  _281
REMARK  118  A    between atoms: _280  and  _283
REMARK  119  A    between atoms: _283  and  _284
REMARK  120  A    between atoms: _287  and  _289
REMARK  121  A    between atoms: _289  and  _290
REMARK  122  A    between atoms: _289  and  _292
REMARK  123  A    between atoms: _292  and  _293
REMARK  124  A    between atoms: _293  and  _294
REMARK  125  A    between atoms: _294  and  _295
REMARK  126  A    between atoms: _304  and  _306
REMARK  127  A    between atoms: _306  and  _307
REMARK  128  A    between atoms: _306  and  _309
REMARK  129  A    between atoms: _309  and  _310
REMARK  130  A    between atoms: _310  and  _311
REMARK  131  A    between atoms: _314  and  _316
REMARK  132  A    between atoms: _316  and  _317
REMARK  133  A    between atoms: _316  and  _319
REMARK  134  A    between atoms: _319  and  _320
REMARK  135  A    between atoms: _323  and  _325
REMARK  136  A    between atoms: _325  and  _326
REMARK  137  A    between atoms: _325  and  _328
REMARK  138  A    between atoms: _328  and  _329
REMARK  139  A    between atoms: _332  and  _334
REMARK  140  A    between atoms: _334  and  _335
REMARK  141  A    between atoms: _334  and  _337
REMARK  142  A    between atoms: _337  and  _338
REMARK  143  A    between atoms: _341  and  _343
REMARK  144  A    between atoms: _343  and  _344
REMARK  145  A    between atoms: _346  and  _348
REMARK  146  A    between atoms: _348  and  _349
REMARK  147  A    between atoms: _348  and  _351
REMARK  148  A    between atoms: _351  and  _352
REMARK  149  A    between atoms: _355  and  _357
REMARK  150  A    between atoms: _357  and  _358
REMARK  151  A    between atoms: _357  and  _360
REMARK  152  A    between atoms: _363  and  _365
REMARK  153  A    between atoms: _365  and  _366
REMARK  154  A    between atoms: _365  and  _368
REMARK  155  A    between atoms: _368  and  _369
REMARK  156  A    between atoms: _372  and  _374
REMARK  157  A    between atoms: _374  and  _375
REMARK  158  A    between atoms: _374  and  _377
REMARK  159  A    between atoms: _380  and  _382
REMARK  160  A    between atoms: _382  and  _383
REMARK  161  A    between atoms: _382  and  _385
REMARK  162  A    between atoms: _385  and  _386
REMARK  163  A    between atoms: _386  and  _387
REMARK  164  A    between atoms: _392  and  _394
REMARK  165  A    between atoms: _394  and  _395
REMARK  166  A    between atoms: _394  and  _397
REMARK  167  A    between atoms: _397  and  _398
REMARK  168  A    between atoms: _401  and  _403
REMARK  169  A    between atoms: _403  and  _404
REMARK  170  A    between atoms: _403  and  _406
REMARK  171  A    between atoms: _406  and  _407
REMARK  172  A    between atoms: _410  and  _412
REMARK  173  A    between atoms: _412  and  _413
REMARK  174  A    between atoms: _412  and  _415
REMARK  175  A    between atoms: _415  and  _416
REMARK  176  A    between atoms: _416  and  _417
REMARK  177  A    between atoms: _419  and  _421
REMARK  178  A    between atoms: _421  and  _422
REMARK  179  A    between atoms: _421  and  _424
REMARK  180  A    between atoms: _424  and  _425
REMARK  181  A    between atoms: _425  and  _426
REMARK  182  A    between atoms: _429  and  _431
REMARK  183  A    between atoms: _431  and  _432
REMARK  184  A    between atoms: _431  and  _434
REMARK  185  A    between atoms: _434  and  _435
REMARK  186  A    between atoms: _438  and  _440
REMARK  187  A    between atoms: _440  and  _441
REMARK  188  A    between atoms: _440  and  _443
REMARK  189  A    between atoms: _443  and  _444
REMARK  190  A    between atoms: _447  and  _449
REMARK  191  A    between atoms: _449  and  _450
REMARK  192  A    between atoms: _449  and  _452
REMARK  193  A    between atoms: _452  and  _453
REMARK  194  A    between atoms: _453  and  _454
REMARK  195  A    between atoms: _454  and  _455
REMARK  196  A    between atoms: _455  and  _456
REMARK  197  A    between atoms: _460  and  _462
REMARK  198  A    between atoms: _462  and  _463
REMARK  199  A    between atoms: _462  and  _465
REMARK  200  A    between atoms: _465  and  _466
REMARK  201  A    between atoms: _468  and  _470
REMARK  202  A    between atoms: _470  and  _471
REMARK  203  A    between atoms: _470  and  _473
REMARK  204  A    between atoms: _473  and  _474
REMARK  205  A    between atoms: _479  and  _481
REMARK  206  A    between atoms: _481  and  _482
REMARK  207  A    between atoms: _481  and  _484
REMARK  208  A    between atoms: _484  and  _485
REMARK  209  A    between atoms: _488  and  _490
REMARK  210  A    between atoms: _490  and  _491
REMARK  211  A    between atoms: _490  and  _493
REMARK  212  A    between atoms: _493  and  _494
REMARK  213  A    between atoms: _497  and  _499
REMARK  214  A    between atoms: _499  and  _500
REMARK  215  A    between atoms: _499  and  _502
REMARK  216  A    between atoms: _502  and  _503
REMARK  217  A    between atoms: _503  and  _504
REMARK  218  A    between atoms: _504  and  _505
REMARK  219  A    between atoms: _505  and  _506
REMARK  220  A    between atoms: _510  and  _512
REMARK  221  A    between atoms: _512  and  _513
REMARK  222  A    between atoms: _512  and  _515
REMARK  223  A    between atoms: _515  and  _516
REMARK  224  A    between atoms: _519  and  _521
REMARK  225  A    between atoms: _521  and  _522
REMARK  226  A    between atoms: _521  and  _524
REMARK  227  A    between atoms: _526  and  _528
REMARK  228  A    between atoms: _528  and  _529
REMARK  229  A    between atoms: _528  and  _531
REMARK  230  A    between atoms: _531  and  _532
REMARK  231  A    between atoms: _535  and  _537
REMARK  232  A    between atoms: _537  and  _538
REMARK  233  A    between atoms: _537  and  _540
REMARK  234  A    between atoms: _540  and  _541
REMARK  235  A    between atoms: _547  and  _549
REMARK  236  A    between atoms: _549  and  _550
REMARK  237  A    between atoms: _552  and  _554
REMARK  238  A    between atoms: _554  and  _555
REMARK  239  A    between atoms: _554  and  _557
REMARK  240  A    between atoms: _557  and  _558
REMARK  241  A    between atoms: _561  and  _563
REMARK  242  A    between atoms: _563  and  _564
REMARK                            x       y       z     vdW  Elec       q    Type
REMARK                         _______ _______ _______ _____ _____    ______ ____
ROOT
ATOM      1  O   HOH     1      47.196  19.548  16.138  0.00  0.00    +0.000 OA
ENDROOT
TORSDOF 0
