REMARK  Name = ../refined-set-2016/1hpo/1hpo_pocket.pdb
REMARK  201 active torsions:
REMARK  status: ('A' for Active; 'I' for Inactive)
REMARK    1  A    between atoms: _1  and  _3
REMARK    2  A    between atoms: _3  and  _4
REMARK    3  A    between atoms: _3  and  _6
REMARK    4  A    between atoms: _6  and  _7
REMARK    5  A    between atoms: _7  and  _8
REMARK    6  A    between atoms: _8  and  _9
REMARK    7  A    between atoms: _19  and  _20
REMARK    8  A    between atoms: _25  and  _27
REMARK    9  A    between atoms: _27  and  _28
REMARK   10  A    between atoms: _27  and  _30
REMARK   11  A    between atoms: _30  and  _31
REMARK   12  A    between atoms: _34  and  _36
REMARK   13  A    between atoms: _36  and  _37
REMARK   14  A    between atoms: _36  and  _39
REMARK   15  A    between atoms: _39  and  _40
REMARK   16  A    between atoms: _40  and  _41
REMARK   17  A    between atoms: _44  and  _46
REMARK   18  A    between atoms: _46  and  _47
REMARK   19  A    between atoms: _50  and  _52
REMARK   20  A    between atoms: _52  and  _53
REMARK   21  A    between atoms: _52  and  _55
REMARK   22  A    between atoms: _55  and  _56
REMARK   23  A    between atoms: _59  and  _61
REMARK   24  A    between atoms: _61  and  _62
REMARK   25  A    between atoms: _61  and  _64
REMARK   26  A    between atoms: _64  and  _65
REMARK   27  A    between atoms: _68  and  _70
REMARK   28  A    between atoms: _70  and  _71
REMARK   29  A    between atoms: _70  and  _73
REMARK   30  A    between atoms: _73  and  _74
REMARK   31  A    between atoms: _77  and  _79
REMARK   32  A    between atoms: _79  and  _80
REMARK   33  A    between atoms: _79  and  _82
REMARK   34  A    between atoms: _82  and  _83
REMARK   35  A    between atoms: _86  and  _88
REMARK   36  A    between atoms: _88  and  _89
REMARK   37  A    between atoms: _91  and  _93
REMARK   38  A    between atoms: _93  and  _94
REMARK   39  A    between atoms: _97  and  _99
REMARK   40  A    between atoms: _99  and  _100
REMARK   41  A    between atoms: _99  and  _102
REMARK   42  A    between atoms: _102  and  _103
REMARK   43  A    between atoms: _106  and  _108
REMARK   44  A    between atoms: _108  and  _109
REMARK   45  A    between atoms: _108  and  _111
REMARK   46  A    between atoms: _111  and  _112
REMARK   47  A    between atoms: _115  and  _117
REMARK   48  A    between atoms: _117  and  _118
REMARK   49  A    between atoms: _117  and  _120
REMARK   50  A    between atoms: _120  and  _121
REMARK   51  A    between atoms: _124  and  _126
REMARK   52  A    between atoms: _126  and  _127
REMARK   53  A    between atoms: _129  and  _131
REMARK   54  A    between atoms: _131  and  _132
REMARK   55  A    between atoms: _134  and  _136
REMARK   56  A    between atoms: _136  and  _137
REMARK   57  A    between atoms: _136  and  _139
REMARK   58  A    between atoms: _139  and  _140
REMARK   59  A    between atoms: _143  and  _145
REMARK   60  A    between atoms: _145  and  _146
REMARK   61  A    between atoms: _148  and  _150
REMARK   62  A    between atoms: _150  and  _151
REMARK   63  A    between atoms: _153  and  _155
REMARK   64  A    between atoms: _155  and  _156
REMARK   65  A    between atoms: _155  and  _158
REMARK   66  A    between atoms: _158  and  _159
REMARK   67  A    between atoms: _163  and  _164
REMARK   68  A    between atoms: _169  and  _171
REMARK   69  A    between atoms: _171  and  _172
REMARK   70  A    between atoms: _171  and  _174
REMARK   71  A    between atoms: _177  and  _179
REMARK   72  A    between atoms: _179  and  _180
REMARK   73  A    between atoms: _179  and  _182
REMARK   74  A    between atoms: _182  and  _183
REMARK   75  A    between atoms: _188  and  _190
REMARK   76  A    between atoms: _190  and  _191
REMARK   77  A    between atoms: _190  and  _193
REMARK   78  A    between atoms: _193  and  _194
REMARK   79  A    between atoms: _197  and  _199
REMARK   80  A    between atoms: _199  and  _200
REMARK   81  A    between atoms: _199  and  _202
REMARK   82  A    between atoms: _202  and  _203
REMARK   83  A    between atoms: _206  and  _208
REMARK   84  A    between atoms: _208  and  _209
REMARK   85  A    between atoms: _208  and  _211
REMARK   86  A    between atoms: _211  and  _212
REMARK   87  A    between atoms: _212  and  _213
REMARK   88  A    between atoms: _213  and  _214
REMARK   89  A    between atoms: _223  and  _225
REMARK   90  A    between atoms: _225  and  _226
REMARK   91  A    between atoms: _225  and  _228
REMARK   92  A    between atoms: _228  and  _229
REMARK   93  A    between atoms: _229  and  _230
REMARK   94  A    between atoms: _230  and  _231
REMARK   95  A    between atoms: _240  and  _242
REMARK   96  A    between atoms: _242  and  _243
REMARK   97  A    between atoms: _242  and  _245
REMARK   98  A    between atoms: _245  and  _246
REMARK   99  A    between atoms: _249  and  _251
REMARK  100  A    between atoms: _251  and  _252
REMARK  101  A    between atoms: _251  and  _254
REMARK  102  A    between atoms: _254  and  _255
REMARK  103  A    between atoms: _258  and  _260
REMARK  104  A    between atoms: _260  and  _261
REMARK  105  A    between atoms: _260  and  _263
REMARK  106  A    between atoms: _263  and  _264
REMARK  107  A    between atoms: _267  and  _269
REMARK  108  A    between atoms: _269  and  _270
REMARK  109  A    between atoms: _269  and  _272
REMARK  110  A    between atoms: _272  and  _273
REMARK  111  A    between atoms: _276  and  _278
REMARK  112  A    between atoms: _278  and  _279
REMARK  113  A    between atoms: _281  and  _283
REMARK  114  A    between atoms: _283  and  _284
REMARK  115  A    between atoms: _287  and  _289
REMARK  116  A    between atoms: _289  and  _290
REMARK  117  A    between atoms: _289  and  _292
REMARK  118  A    between atoms: _292  and  _293
REMARK  119  A    between atoms: _296  and  _298
REMARK  120  A    between atoms: _298  and  _299
REMARK  121  A    between atoms: _298  and  _301
REMARK  122  A    between atoms: _301  and  _302
REMARK  123  A    between atoms: _305  and  _307
REMARK  124  A    between atoms: _307  and  _308
REMARK  125  A    between atoms: _307  and  _310
REMARK  126  A    between atoms: _310  and  _311
REMARK  127  A    between atoms: _314  and  _316
REMARK  128  A    between atoms: _316  and  _317
REMARK  129  A    between atoms: _316  and  _319
REMARK  130  A    between atoms: _322  and  _324
REMARK  131  A    between atoms: _324  and  _325
REMARK  132  A    between atoms: _324  and  _327
REMARK  133  A    between atoms: _327  and  _328
REMARK  134  A    between atoms: _328  and  _329
REMARK  135  A    between atoms: _329  and  _330
REMARK  136  A    between atoms: _330  and  _331
REMARK  137  A    between atoms: _335  and  _337
REMARK  138  A    between atoms: _337  and  _338
REMARK  139  A    between atoms: _337  and  _340
REMARK  140  A    between atoms: _340  and  _341
REMARK  141  A    between atoms: _341  and  _342
REMARK  142  A    between atoms: _344  and  _346
REMARK  143  A    between atoms: _346  and  _347
REMARK  144  A    between atoms: _346  and  _349
REMARK  145  A    between atoms: _349  and  _350
REMARK  146  A    between atoms: _353  and  _355
REMARK  147  A    between atoms: _355  and  _356
REMARK  148  A    between atoms: _358  and  _360
REMARK  149  A    between atoms: _360  and  _361
REMARK  150  A    between atoms: _363  and  _365
REMARK  151  A    between atoms: _365  and  _366
REMARK  152  A    between atoms: _365  and  _368
REMARK  153  A    between atoms: _368  and  _369
REMARK  154  A    between atoms: _372  and  _374
REMARK  155  A    between atoms: _374  and  _375
REMARK  156  A    between atoms: _377  and  _379
REMARK  157  A    between atoms: _379  and  _380
REMARK  158  A    between atoms: _382  and  _384
REMARK  159  A    between atoms: _384  and  _385
REMARK  160  A    between atoms: _384  and  _387
REMARK  161  A    between atoms: _387  and  _388
REMARK  162  A    between atoms: _394  and  _396
REMARK  163  A    between atoms: _396  and  _397
REMARK  164  A    between atoms: _396  and  _399
REMARK  165  A    between atoms: _399  and  _400
REMARK  166  A    between atoms: _403  and  _405
REMARK  167  A    between atoms: _405  and  _406
REMARK  168  A    between atoms: _405  and  _408
REMARK  169  A    between atoms: _408  and  _409
REMARK  170  A    between atoms: _412  and  _414
REMARK  171  A    between atoms: _414  and  _415
REMARK  172  A    between atoms: _414  and  _417
REMARK  173  A    between atoms: _417  and  _418
REMARK  174  A    between atoms: _422  and  _423
REMARK  175  A    between atoms: _428  and  _430
REMARK  176  A    between atoms: _430  and  _431
REMARK  177  A    between atoms: _430  and  _433
REMARK  178  A    between atoms: _436  and  _438
REMARK  179  A    between atoms: _438  and  _439
REMARK  180  A    between atoms: _438  and  _441
REMARK  181  A    between atoms: _441  and  _442
REMARK  182  A    between atoms: _447  and  _449
REMARK  183  A    between atoms: _449  and  _450
REMARK  184  A    between atoms: _449  and  _452
REMARK  185  A    between atoms: _452  and  _453
REMARK  186  A    between atoms: _456  and  _458
REMARK  187  A    between atoms: _458  and  _459
REMARK  188  A    between atoms: _458  and  _461
REMARK  189  A    between atoms: _461  and  _462
REMARK  190  A    between atoms: _465  and  _467
REMARK  191  A    between atoms: _467  and  _468
REMARK  192  A    between atoms: _470  and  _472
REMARK  193  A    between atoms: _472  and  _473
REMARK  194  A    between atoms: _472  and  _475
REMARK  195  A    between atoms: _475  and  _476
REMARK  196  A    between atoms: _476  and  _477
REMARK  197  A    between atoms: _477  and  _478
REMARK  198  A    between atoms: _487  and  _489
REMARK  199  A    between atoms: _489  and  _490
REMARK  200  A    between atoms: _489  and  _492
REMARK  201  A    between atoms: _492  and  _493
REMARK                            x       y       z     vdW  Elec       q    Type
REMARK                         _______ _______ _______ _____ _____    ______ ____
ROOT
ATOM      1  C   ARG A   1      26.212  26.440   7.143  0.00  0.00    +0.241 C 
ATOM      2  O   ARG A   1      27.095  26.684   7.938  0.00  0.00    -0.273 OA
ATOM      3  N   PRO A   2      25.493  27.420   6.582  0.00  0.00    -0.272 N 
ATOM      4  CA  PRO A   2      25.755  28.772   7.087  0.00  0.00    +0.152 C 
ATOM      5  CB  PRO A   2      25.076  29.652   6.043  0.00  0.00    +0.031 C 
ATOM      6  CG  PRO A   2      23.943  28.795   5.572  0.00  0.00    +0.024 C 
ATOM      7  CD  PRO A   2      24.613  27.473   5.403  0.00  0.00    +0.094 C 
ENDROOT
BRANCH   4   8
ATOM      8  C   PRO A   2      25.142  28.949   8.473  0.00  0.00    +0.241 C 
ATOM      9  N   LEU A   3      25.902  28.601   9.510  0.00  0.00    -0.298 N 
ATOM     10  H   LEU A   3      26.848  28.216   9.314  0.00  0.00    +0.150 HD
ATOM     11  O   PRO A   2      23.975  29.298   8.585  0.00  0.00    -0.273 OA
BRANCH   9  12
ATOM     12  CA  LEU A   3      25.485  28.728  10.918  0.00  0.00    +0.137 C 
BRANCH  12  13
ATOM     13  C   LEU A   3      26.046  30.020  11.567  0.00  0.00    +0.227 C 
ATOM     14  O   LEU A   3      27.250  30.298  11.470  0.00  0.00    -0.286 OA
ENDBRANCH  12  13
BRANCH  12  15
ATOM     15  CB  LEU A   3      25.965  27.512  11.732  0.00  0.00    +0.028 C 
BRANCH  15  16
ATOM     16  CG  LEU A   3      25.473  26.103  11.380  0.00  0.00    +0.002 C 
ATOM     17  CD2 LEU A   3      26.338  25.041  12.048  0.00  0.00    +0.000 C 
ATOM     18  CD1 LEU A   3      24.036  25.911  11.772  0.00  0.00    +0.000 C 
ENDBRANCH  15  16
ENDBRANCH  12  15
ENDBRANCH   9  12
ENDBRANCH   4   8
BRANCH   1  19
ATOM     19  CA  ARG A   1      25.994  25.008   6.689  0.00  0.00    +0.145 C 
BRANCH  19  20
ATOM     20  N   ARG A   1      27.251  24.453   6.234  0.00  0.00    -0.238 NA
ATOM     21  H   ARG A   1      27.624  23.607   6.711  0.00  0.00    +0.142 HD
ENDBRANCH  19  20
BRANCH  19  22
ATOM     22  CB  ARG A   1      25.478  24.186   7.851  0.00  0.00    +0.030 C 
BRANCH  22  23
ATOM     23  CG  ARG A   1      25.042  22.825   7.437  0.00  0.00    +0.045 C 
BRANCH  23  24
ATOM     24  CD  ARG A   1      24.139  22.203   8.464  0.00  0.00    +0.174 C 
BRANCH  24  25
ATOM     25  NE  ARG A   1      23.671  20.886   8.032  0.00  0.00    -0.265 N 
ATOM     26  CZ  ARG A   1      23.772  19.783   8.761  0.00  0.00    +0.342 C 
ATOM     27  NH2 ARG A   1      24.331  19.806   9.970  0.00  0.00    -0.292 N 
ATOM     28 HH21 ARG A   1      24.401  18.931  10.527  0.00  0.00    +0.255 HD
ATOM     29 HH22 ARG A   1      24.697  20.699  10.357  0.00  0.00    +0.255 HD
ATOM     30  NH1 ARG A   1      23.259  18.657   8.300  0.00  0.00    -0.292 N 
ATOM     31 HH11 ARG A   1      23.331  17.785   8.861  0.00  0.00    +0.255 HD
ATOM     32 HH12 ARG A   1      22.783  18.643   7.376  0.00  0.00    +0.255 HD
ATOM     33  HE  ARG A   1      23.231  20.810   7.093  0.00  0.00    +0.259 HD
ENDBRANCH  24  25
ENDBRANCH  23  24
ENDBRANCH  22  23
ENDBRANCH  19  22
ENDBRANCH   1  19
TORSDOF 11
REMARK  Name = ../refined-set-2016/1hpo/1hpo_pocket.pdb
REMARK  201 active torsions:
REMARK  status: ('A' for Active; 'I' for Inactive)
REMARK    1  A    between atoms: _1  and  _3
REMARK    2  A    between atoms: _3  and  _4
REMARK    3  A    between atoms: _3  and  _6
REMARK    4  A    between atoms: _6  and  _7
REMARK    5  A    between atoms: _7  and  _8
REMARK    6  A    between atoms: _8  and  _9
REMARK    7  A    between atoms: _19  and  _20
REMARK    8  A    between atoms: _25  and  _27
REMARK    9  A    between atoms: _27  and  _28
REMARK   10  A    between atoms: _27  and  _30
REMARK   11  A    between atoms: _30  and  _31
REMARK   12  A    between atoms: _34  and  _36
REMARK   13  A    between atoms: _36  and  _37
REMARK   14  A    between atoms: _36  and  _39
REMARK   15  A    between atoms: _39  and  _40
REMARK   16  A    between atoms: _40  and  _41
REMARK   17  A    between atoms: _44  and  _46
REMARK   18  A    between atoms: _46  and  _47
REMARK   19  A    between atoms: _50  and  _52
REMARK   20  A    between atoms: _52  and  _53
REMARK   21  A    between atoms: _52  and  _55
REMARK   22  A    between atoms: _55  and  _56
REMARK   23  A    between atoms: _59  and  _61
REMARK   24  A    between atoms: _61  and  _62
REMARK   25  A    between atoms: _61  and  _64
REMARK   26  A    between atoms: _64  and  _65
REMARK   27  A    between atoms: _68  and  _70
REMARK   28  A    between atoms: _70  and  _71
REMARK   29  A    between atoms: _70  and  _73
REMARK   30  A    between atoms: _73  and  _74
REMARK   31  A    between atoms: _77  and  _79
REMARK   32  A    between atoms: _79  and  _80
REMARK   33  A    between atoms: _79  and  _82
REMARK   34  A    between atoms: _82  and  _83
REMARK   35  A    between atoms: _86  and  _88
REMARK   36  A    between atoms: _88  and  _89
REMARK   37  A    between atoms: _91  and  _93
REMARK   38  A    between atoms: _93  and  _94
REMARK   39  A    between atoms: _97  and  _99
REMARK   40  A    between atoms: _99  and  _100
REMARK   41  A    between atoms: _99  and  _102
REMARK   42  A    between atoms: _102  and  _103
REMARK   43  A    between atoms: _106  and  _108
REMARK   44  A    between atoms: _108  and  _109
REMARK   45  A    between atoms: _108  and  _111
REMARK   46  A    between atoms: _111  and  _112
REMARK   47  A    between atoms: _115  and  _117
REMARK   48  A    between atoms: _117  and  _118
REMARK   49  A    between atoms: _117  and  _120
REMARK   50  A    between atoms: _120  and  _121
REMARK   51  A    between atoms: _124  and  _126
REMARK   52  A    between atoms: _126  and  _127
REMARK   53  A    between atoms: _129  and  _131
REMARK   54  A    between atoms: _131  and  _132
REMARK   55  A    between atoms: _134  and  _136
REMARK   56  A    between atoms: _136  and  _137
REMARK   57  A    between atoms: _136  and  _139
REMARK   58  A    between atoms: _139  and  _140
REMARK   59  A    between atoms: _143  and  _145
REMARK   60  A    between atoms: _145  and  _146
REMARK   61  A    between atoms: _148  and  _150
REMARK   62  A    between atoms: _150  and  _151
REMARK   63  A    between atoms: _153  and  _155
REMARK   64  A    between atoms: _155  and  _156
REMARK   65  A    between atoms: _155  and  _158
REMARK   66  A    between atoms: _158  and  _159
REMARK   67  A    between atoms: _163  and  _164
REMARK   68  A    between atoms: _169  and  _171
REMARK   69  A    between atoms: _171  and  _172
REMARK   70  A    between atoms: _171  and  _174
REMARK   71  A    between atoms: _177  and  _179
REMARK   72  A    between atoms: _179  and  _180
REMARK   73  A    between atoms: _179  and  _182
REMARK   74  A    between atoms: _182  and  _183
REMARK   75  A    between atoms: _188  and  _190
REMARK   76  A    between atoms: _190  and  _191
REMARK   77  A    between atoms: _190  and  _193
REMARK   78  A    between atoms: _193  and  _194
REMARK   79  A    between atoms: _197  and  _199
REMARK   80  A    between atoms: _199  and  _200
REMARK   81  A    between atoms: _199  and  _202
REMARK   82  A    between atoms: _202  and  _203
REMARK   83  A    between atoms: _206  and  _208
REMARK   84  A    between atoms: _208  and  _209
REMARK   85  A    between atoms: _208  and  _211
REMARK   86  A    between atoms: _211  and  _212
REMARK   87  A    between atoms: _212  and  _213
REMARK   88  A    between atoms: _213  and  _214
REMARK   89  A    between atoms: _223  and  _225
REMARK   90  A    between atoms: _225  and  _226
REMARK   91  A    between atoms: _225  and  _228
REMARK   92  A    between atoms: _228  and  _229
REMARK   93  A    between atoms: _229  and  _230
REMARK   94  A    between atoms: _230  and  _231
REMARK   95  A    between atoms: _240  and  _242
REMARK   96  A    between atoms: _242  and  _243
REMARK   97  A    between atoms: _242  and  _245
REMARK   98  A    between atoms: _245  and  _246
REMARK   99  A    between atoms: _249  and  _251
REMARK  100  A    between atoms: _251  and  _252
REMARK  101  A    between atoms: _251  and  _254
REMARK  102  A    between atoms: _254  and  _255
REMARK  103  A    between atoms: _258  and  _260
REMARK  104  A    between atoms: _260  and  _261
REMARK  105  A    between atoms: _260  and  _263
REMARK  106  A    between atoms: _263  and  _264
REMARK  107  A    between atoms: _267  and  _269
REMARK  108  A    between atoms: _269  and  _270
REMARK  109  A    between atoms: _269  and  _272
REMARK  110  A    between atoms: _272  and  _273
REMARK  111  A    between atoms: _276  and  _278
REMARK  112  A    between atoms: _278  and  _279
REMARK  113  A    between atoms: _281  and  _283
REMARK  114  A    between atoms: _283  and  _284
REMARK  115  A    between atoms: _287  and  _289
REMARK  116  A    between atoms: _289  and  _290
REMARK  117  A    between atoms: _289  and  _292
REMARK  118  A    between atoms: _292  and  _293
REMARK  119  A    between atoms: _296  and  _298
REMARK  120  A    between atoms: _298  and  _299
REMARK  121  A    between atoms: _298  and  _301
REMARK  122  A    between atoms: _301  and  _302
REMARK  123  A    between atoms: _305  and  _307
REMARK  124  A    between atoms: _307  and  _308
REMARK  125  A    between atoms: _307  and  _310
REMARK  126  A    between atoms: _310  and  _311
REMARK  127  A    between atoms: _314  and  _316
REMARK  128  A    between atoms: _316  and  _317
REMARK  129  A    between atoms: _316  and  _319
REMARK  130  A    between atoms: _322  and  _324
REMARK  131  A    between atoms: _324  and  _325
REMARK  132  A    between atoms: _324  and  _327
REMARK  133  A    between atoms: _327  and  _328
REMARK  134  A    between atoms: _328  and  _329
REMARK  135  A    between atoms: _329  and  _330
REMARK  136  A    between atoms: _330  and  _331
REMARK  137  A    between atoms: _335  and  _337
REMARK  138  A    between atoms: _337  and  _338
REMARK  139  A    between atoms: _337  and  _340
REMARK  140  A    between atoms: _340  and  _341
REMARK  141  A    between atoms: _341  and  _342
REMARK  142  A    between atoms: _344  and  _346
REMARK  143  A    between atoms: _346  and  _347
REMARK  144  A    between atoms: _346  and  _349
REMARK  145  A    between atoms: _349  and  _350
REMARK  146  A    between atoms: _353  and  _355
REMARK  147  A    between atoms: _355  and  _356
REMARK  148  A    between atoms: _358  and  _360
REMARK  149  A    between atoms: _360  and  _361
REMARK  150  A    between atoms: _363  and  _365
REMARK  151  A    between atoms: _365  and  _366
REMARK  152  A    between atoms: _365  and  _368
REMARK  153  A    between atoms: _368  and  _369
REMARK  154  A    between atoms: _372  and  _374
REMARK  155  A    between atoms: _374  and  _375
REMARK  156  A    between atoms: _377  and  _379
REMARK  157  A    between atoms: _379  and  _380
REMARK  158  A    between atoms: _382  and  _384
REMARK  159  A    between atoms: _384  and  _385
REMARK  160  A    between atoms: _384  and  _387
REMARK  161  A    between atoms: _387  and  _388
REMARK  162  A    between atoms: _394  and  _396
REMARK  163  A    between atoms: _396  and  _397
REMARK  164  A    between atoms: _396  and  _399
REMARK  165  A    between atoms: _399  and  _400
REMARK  166  A    between atoms: _403  and  _405
REMARK  167  A    between atoms: _405  and  _406
REMARK  168  A    between atoms: _405  and  _408
REMARK  169  A    between atoms: _408  and  _409
REMARK  170  A    between atoms: _412  and  _414
REMARK  171  A    between atoms: _414  and  _415
REMARK  172  A    between atoms: _414  and  _417
REMARK  173  A    between atoms: _417  and  _418
REMARK  174  A    between atoms: _422  and  _423
REMARK  175  A    between atoms: _428  and  _430
REMARK  176  A    between atoms: _430  and  _431
REMARK  177  A    between atoms: _430  and  _433
REMARK  178  A    between atoms: _436  and  _438
REMARK  179  A    between atoms: _438  and  _439
REMARK  180  A    between atoms: _438  and  _441
REMARK  181  A    between atoms: _441  and  _442
REMARK  182  A    between atoms: _447  and  _449
REMARK  183  A    between atoms: _449  and  _450
REMARK  184  A    between atoms: _449  and  _452
REMARK  185  A    between atoms: _452  and  _453
REMARK  186  A    between atoms: _456  and  _458
REMARK  187  A    between atoms: _458  and  _459
REMARK  188  A    between atoms: _458  and  _461
REMARK  189  A    between atoms: _461  and  _462
REMARK  190  A    between atoms: _465  and  _467
REMARK  191  A    between atoms: _467  and  _468
REMARK  192  A    between atoms: _470  and  _472
REMARK  193  A    between atoms: _472  and  _473
REMARK  194  A    between atoms: _472  and  _475
REMARK  195  A    between atoms: _475  and  _476
REMARK  196  A    between atoms: _476  and  _477
REMARK  197  A    between atoms: _477  and  _478
REMARK  198  A    between atoms: _487  and  _489
REMARK  199  A    between atoms: _489  and  _490
REMARK  200  A    between atoms: _489  and  _492
REMARK  201  A    between atoms: _492  and  _493
REMARK                            x       y       z     vdW  Elec       q    Type
REMARK                         _______ _______ _______ _____ _____    ______ ____
ROOT
ATOM      1  CA  ASP A   5      17.713  29.644   5.591  0.00  0.00    +0.160 C 
ENDROOT
BRANCH   1   2
ATOM      2  C   ASP A   5      16.916  30.596   4.722  0.00  0.00    +0.241 C 
ATOM      3  O   ASP A   5      15.931  31.151   5.169  0.00  0.00    -0.273 OA
ATOM      4  N   THR A   6      17.287  30.734   3.456  0.00  0.00    -0.295 N 
ATOM      5  H   THR A   6      18.093  30.188   3.090  0.00  0.00    +0.150 HD
BRANCH   4   6
ATOM      6  CA  THR A   6      16.572  31.645   2.578  0.00  0.00    +0.176 C 
BRANCH   6   7
ATOM      7  C   THR A   6      15.232  31.093   2.148  0.00  0.00    +0.243 C 
ATOM      8  N   GLY A   7      15.019  29.805   2.372  0.00  0.00    -0.295 N 
ATOM      9  H   GLY A   7      15.757  29.235   2.831  0.00  0.00    +0.150 HD
ATOM     10  O   THR A   6      14.438  31.796   1.568  0.00  0.00    -0.273 OA
BRANCH   8  11
ATOM     11  CA  GLY A   7      13.766  29.179   1.984  0.00  0.00    +0.176 C 
BRANCH  11  12
ATOM     12  C   GLY A   7      12.609  29.455   2.911  0.00  0.00    +0.243 C 
ATOM     13  N   ALA A   8      12.895  29.727   4.180  0.00  0.00    -0.297 N 
ATOM     14  H   ALA A   8      13.889  29.769   4.482  0.00  0.00    +0.150 HD
ATOM     15  O   GLY A   7      11.462  29.484   2.470  0.00  0.00    -0.273 OA
BRANCH  13  16
ATOM     16  CA  ALA A   8      11.841  29.967   5.155  0.00  0.00    +0.149 C 
ATOM     17  CB  ALA A   8      12.285  29.487   6.501  0.00  0.00    +0.031 C 
BRANCH  16  18
ATOM     18  C   ALA A   8      11.340  31.407   5.242  0.00  0.00    +0.241 C 
ATOM     19  O   ALA A   8      12.126  32.350   5.306  0.00  0.00    -0.273 OA
ATOM     20  N   ASP A   9      10.018  31.549   5.303  0.00  0.00    -0.297 N 
ATOM     21  H   ASP A   9       9.433  30.690   5.277  0.00  0.00    +0.150 HD
BRANCH  20  22
ATOM     22  CA  ASP A   9       9.339  32.840   5.404  0.00  0.00    +0.160 C 
BRANCH  22  23
ATOM     23  C   ASP A   9       9.614  33.479   6.765  0.00  0.00    +0.241 C 
ATOM     24  N   ASP A  10       9.336  32.745   7.832  0.00  0.00    -0.298 N 
ATOM     25  H   ASP A  10       8.983  31.775   7.704  0.00  0.00    +0.150 HD
ATOM     26  O   ASP A   9       9.992  34.634   6.857  0.00  0.00    -0.273 OA
BRANCH  24  27
ATOM     27  CA  ASP A  10       9.514  33.267   9.182  0.00  0.00    +0.148 C 
BRANCH  27  28
ATOM     28  C   ASP A  10      10.783  32.749   9.843  0.00  0.00    +0.227 C 
ATOM     29  O   ASP A  10      11.600  32.105   9.192  0.00  0.00    -0.286 OA
ENDBRANCH  27  28
BRANCH  27  30
ATOM     30  CB  ASP A  10       8.299  32.890  10.034  0.00  0.00    +0.142 C 
BRANCH  30  31
ATOM     31  CG  ASP A  10       6.970  33.333   9.414  0.00  0.00    +0.367 C 
ATOM     32  OD2 ASP A  10       6.536  34.476   9.715  0.00  0.00    -0.246 OA
ATOM     33  OD1 ASP A  10       6.342  32.536   8.658  0.00  0.00    -0.246 OA
ENDBRANCH  30  31
ENDBRANCH  27  30
ENDBRANCH  24  27
ENDBRANCH  22  23
BRANCH  22  34
ATOM     34  CB  ASP A   9       7.808  32.686   5.312  0.00  0.00    +0.143 C 
BRANCH  34  35
ATOM     35  CG  ASP A   9       7.307  32.098   4.001  0.00  0.00    +0.367 C 
ATOM     36  OD2 ASP A   9       6.125  31.701   3.988  0.00  0.00    -0.246 OA
ATOM     37  OD1 ASP A   9       8.041  32.047   2.997  0.00  0.00    -0.246 OA
ENDBRANCH  34  35
ENDBRANCH  22  34
ENDBRANCH  20  22
ENDBRANCH  16  18
ENDBRANCH  13  16
ENDBRANCH  11  12
ENDBRANCH   8  11
ENDBRANCH   6   7
BRANCH   6  38
ATOM     38  CB  THR A   6      17.359  31.915   1.336  0.00  0.00    +0.137 C 
ATOM     39  CG2 THR A   6      18.755  32.286   1.668  0.00  0.00    +0.034 C 
BRANCH  38  40
ATOM     40  OG1 THR A   6      17.404  30.728   0.565  0.00  0.00    -0.382 OA
ATOM     41  HG1 THR A   6      16.482  30.454   0.329  0.00  0.00    +0.210 HD
ENDBRANCH  38  40
ENDBRANCH   6  38
ENDBRANCH   4   6
ENDBRANCH   1   2
BRANCH   1  43
ATOM     42  C   LEU A   4      19.798  30.331   6.583  0.00  0.00    +0.241 C 
ATOM     43  N   ASP A   5      18.482  30.398   6.548  0.00  0.00    -0.297 N 
ATOM     44  H   ASP A   5      17.987  31.010   7.228  0.00  0.00    +0.150 HD
ATOM     45  O   LEU A   4      20.446  29.649   5.803  0.00  0.00    -0.273 OA
BRANCH  42  46
ATOM     46  CA  LEU A   4      20.476  31.131   7.671  0.00  0.00    +0.149 C 
BRANCH  46  49
ATOM     47  C   LEU A   3      20.390  29.500   9.482  0.00  0.00    +0.241 C 
ATOM     48  O   LEU A   3      19.222  29.794   9.744  0.00  0.00    -0.273 OA
ATOM     49  N   LEU A   4      21.092  30.120   8.528  0.00  0.00    -0.297 N 
ATOM     50  H   LEU A   4      22.095  29.879   8.393  0.00  0.00    +0.150 HD
BRANCH  47  51
ATOM     51  CA  LEU A   3      21.088  28.422  10.296  0.00  0.00    +0.149 C 
BRANCH  51  54
ATOM     52  C   ALA A   2      21.680  29.149  12.561  0.00  0.00    +0.241 C 
ATOM     53  O   ALA A   2      22.788  29.552  12.262  0.00  0.00    -0.273 OA
ATOM     54  N   LEU A   3      20.809  28.649  11.699  0.00  0.00    -0.297 N 
ATOM     55  H   LEU A   3      19.862  28.403  12.052  0.00  0.00    +0.150 HD
BRANCH  52  56
ATOM     56  CA  ALA A   2      21.185  29.265  13.969  0.00  0.00    +0.149 C 
ATOM     57  CB  ALA A   2      20.206  30.390  14.081  0.00  0.00    +0.031 C 
BRANCH  56  60
ATOM     58  C   GLU A   1      22.331  29.018  16.060  0.00  0.00    +0.238 C 
ATOM     59  O   GLU A   1      21.395  28.356  16.521  0.00  0.00    -0.274 OA
ATOM     60  N   ALA A   2      22.311  29.509  14.836  0.00  0.00    -0.297 N 
ATOM     61  H   ALA A   2      23.113  30.076  14.494  0.00  0.00    +0.150 HD
BRANCH  58  62
ATOM     62  CA  GLU A   1      23.545  29.340  16.908  0.00  0.00    +0.145 C 
BRANCH  62  63
ATOM     63  N   GLU A   1      23.064  29.321  18.286  0.00  0.00    -0.238 NA
ATOM     64  H   GLU A   1      22.917  28.415  18.775  0.00  0.00    +0.142 HD
ENDBRANCH  62  63
BRANCH  62  65
ATOM     65  CB  GLU A   1      24.675  28.334  16.642  0.00  0.00    +0.038 C 
BRANCH  65  66
ATOM     66  CG  GLU A   1      24.309  26.859  16.891  0.00  0.00    +0.116 C 
BRANCH  66  67
ATOM     67  CD  GLU A   1      25.419  25.867  16.485  0.00  0.00    +0.365 C 
ATOM     68  OE2 GLU A   1      26.543  25.915  17.070  0.00  0.00    -0.246 OA
ATOM     69  OE1 GLU A   1      25.160  25.013  15.591  0.00  0.00    -0.246 OA
ENDBRANCH  66  67
ENDBRANCH  65  66
ENDBRANCH  62  65
ENDBRANCH  58  62
ENDBRANCH  56  60
ENDBRANCH  52  56
ENDBRANCH  51  54
BRANCH  51  70
ATOM     70  CB  LEU A   3      20.477  27.076   9.920  0.00  0.00    +0.029 C 
BRANCH  70  71
ATOM     71  CG  LEU A   3      20.812  26.441   8.586  0.00  0.00    +0.002 C 
ATOM     72  CD2 LEU A   3      22.284  26.180   8.571  0.00  0.00    +0.000 C 
ATOM     73  CD1 LEU A   3      20.042  25.132   8.423  0.00  0.00    +0.000 C 
ENDBRANCH  70  71
ENDBRANCH  51  70
ENDBRANCH  47  51
ENDBRANCH  46  49
BRANCH  46  74
ATOM     74  CB  LEU A   4      21.530  32.057   7.077  0.00  0.00    +0.029 C 
BRANCH  74  75
ATOM     75  CG  LEU A   4      22.345  32.802   8.134  0.00  0.00    +0.002 C 
ATOM     76  CD2 LEU A   4      21.470  33.708   8.948  0.00  0.00    +0.000 C 
ATOM     77  CD1 LEU A   4      23.451  33.552   7.489  0.00  0.00    +0.000 C 
ENDBRANCH  74  75
ENDBRANCH  46  74
ENDBRANCH  42  46
ENDBRANCH   1  43
BRANCH   1  78
ATOM     78  CB  ASP A   5      16.787  28.717   6.367  0.00  0.00    +0.143 C 
BRANCH  78  79
ATOM     79  CG  ASP A   5      15.971  27.826   5.495  0.00  0.00    +0.367 C 
ATOM     80  OD2 ASP A   5      15.606  26.756   5.971  0.00  0.00    -0.246 OA
ATOM     81  OD1 ASP A   5      15.627  28.196   4.359  0.00  0.00    -0.246 OA
ENDBRANCH  78  79
ENDBRANCH   1  78
TORSDOF 35
REMARK  Name = ../refined-set-2016/1hpo/1hpo_pocket.pdb
REMARK  201 active torsions:
REMARK  status: ('A' for Active; 'I' for Inactive)
REMARK    1  A    between atoms: _1  and  _3
REMARK    2  A    between atoms: _3  and  _4
REMARK    3  A    between atoms: _3  and  _6
REMARK    4  A    between atoms: _6  and  _7
REMARK    5  A    between atoms: _7  and  _8
REMARK    6  A    between atoms: _8  and  _9
REMARK    7  A    between atoms: _19  and  _20
REMARK    8  A    between atoms: _25  and  _27
REMARK    9  A    between atoms: _27  and  _28
REMARK   10  A    between atoms: _27  and  _30
REMARK   11  A    between atoms: _30  and  _31
REMARK   12  A    between atoms: _34  and  _36
REMARK   13  A    between atoms: _36  and  _37
REMARK   14  A    between atoms: _36  and  _39
REMARK   15  A    between atoms: _39  and  _40
REMARK   16  A    between atoms: _40  and  _41
REMARK   17  A    between atoms: _44  and  _46
REMARK   18  A    between atoms: _46  and  _47
REMARK   19  A    between atoms: _50  and  _52
REMARK   20  A    between atoms: _52  and  _53
REMARK   21  A    between atoms: _52  and  _55
REMARK   22  A    between atoms: _55  and  _56
REMARK   23  A    between atoms: _59  and  _61
REMARK   24  A    between atoms: _61  and  _62
REMARK   25  A    between atoms: _61  and  _64
REMARK   26  A    between atoms: _64  and  _65
REMARK   27  A    between atoms: _68  and  _70
REMARK   28  A    between atoms: _70  and  _71
REMARK   29  A    between atoms: _70  and  _73
REMARK   30  A    between atoms: _73  and  _74
REMARK   31  A    between atoms: _77  and  _79
REMARK   32  A    between atoms: _79  and  _80
REMARK   33  A    between atoms: _79  and  _82
REMARK   34  A    between atoms: _82  and  _83
REMARK   35  A    between atoms: _86  and  _88
REMARK   36  A    between atoms: _88  and  _89
REMARK   37  A    between atoms: _91  and  _93
REMARK   38  A    between atoms: _93  and  _94
REMARK   39  A    between atoms: _97  and  _99
REMARK   40  A    between atoms: _99  and  _100
REMARK   41  A    between atoms: _99  and  _102
REMARK   42  A    between atoms: _102  and  _103
REMARK   43  A    between atoms: _106  and  _108
REMARK   44  A    between atoms: _108  and  _109
REMARK   45  A    between atoms: _108  and  _111
REMARK   46  A    between atoms: _111  and  _112
REMARK   47  A    between atoms: _115  and  _117
REMARK   48  A    between atoms: _117  and  _118
REMARK   49  A    between atoms: _117  and  _120
REMARK   50  A    between atoms: _120  and  _121
REMARK   51  A    between atoms: _124  and  _126
REMARK   52  A    between atoms: _126  and  _127
REMARK   53  A    between atoms: _129  and  _131
REMARK   54  A    between atoms: _131  and  _132
REMARK   55  A    between atoms: _134  and  _136
REMARK   56  A    between atoms: _136  and  _137
REMARK   57  A    between atoms: _136  and  _139
REMARK   58  A    between atoms: _139  and  _140
REMARK   59  A    between atoms: _143  and  _145
REMARK   60  A    between atoms: _145  and  _146
REMARK   61  A    between atoms: _148  and  _150
REMARK   62  A    between atoms: _150  and  _151
REMARK   63  A    between atoms: _153  and  _155
REMARK   64  A    between atoms: _155  and  _156
REMARK   65  A    between atoms: _155  and  _158
REMARK   66  A    between atoms: _158  and  _159
REMARK   67  A    between atoms: _163  and  _164
REMARK   68  A    between atoms: _169  and  _171
REMARK   69  A    between atoms: _171  and  _172
REMARK   70  A    between atoms: _171  and  _174
REMARK   71  A    between atoms: _177  and  _179
REMARK   72  A    between atoms: _179  and  _180
REMARK   73  A    between atoms: _179  and  _182
REMARK   74  A    between atoms: _182  and  _183
REMARK   75  A    between atoms: _188  and  _190
REMARK   76  A    between atoms: _190  and  _191
REMARK   77  A    between atoms: _190  and  _193
REMARK   78  A    between atoms: _193  and  _194
REMARK   79  A    between atoms: _197  and  _199
REMARK   80  A    between atoms: _199  and  _200
REMARK   81  A    between atoms: _199  and  _202
REMARK   82  A    between atoms: _202  and  _203
REMARK   83  A    between atoms: _206  and  _208
REMARK   84  A    between atoms: _208  and  _209
REMARK   85  A    between atoms: _208  and  _211
REMARK   86  A    between atoms: _211  and  _212
REMARK   87  A    between atoms: _212  and  _213
REMARK   88  A    between atoms: _213  and  _214
REMARK   89  A    between atoms: _223  and  _225
REMARK   90  A    between atoms: _225  and  _226
REMARK   91  A    between atoms: _225  and  _228
REMARK   92  A    between atoms: _228  and  _229
REMARK   93  A    between atoms: _229  and  _230
REMARK   94  A    between atoms: _230  and  _231
REMARK   95  A    between atoms: _240  and  _242
REMARK   96  A    between atoms: _242  and  _243
REMARK   97  A    between atoms: _242  and  _245
REMARK   98  A    between atoms: _245  and  _246
REMARK   99  A    between atoms: _249  and  _251
REMARK  100  A    between atoms: _251  and  _252
REMARK  101  A    between atoms: _251  and  _254
REMARK  102  A    between atoms: _254  and  _255
REMARK  103  A    between atoms: _258  and  _260
REMARK  104  A    between atoms: _260  and  _261
REMARK  105  A    between atoms: _260  and  _263
REMARK  106  A    between atoms: _263  and  _264
REMARK  107  A    between atoms: _267  and  _269
REMARK  108  A    between atoms: _269  and  _270
REMARK  109  A    between atoms: _269  and  _272
REMARK  110  A    between atoms: _272  and  _273
REMARK  111  A    between atoms: _276  and  _278
REMARK  112  A    between atoms: _278  and  _279
REMARK  113  A    between atoms: _281  and  _283
REMARK  114  A    between atoms: _283  and  _284
REMARK  115  A    between atoms: _287  and  _289
REMARK  116  A    between atoms: _289  and  _290
REMARK  117  A    between atoms: _289  and  _292
REMARK  118  A    between atoms: _292  and  _293
REMARK  119  A    between atoms: _296  and  _298
REMARK  120  A    between atoms: _298  and  _299
REMARK  121  A    between atoms: _298  and  _301
REMARK  122  A    between atoms: _301  and  _302
REMARK  123  A    between atoms: _305  and  _307
REMARK  124  A    between atoms: _307  and  _308
REMARK  125  A    between atoms: _307  and  _310
REMARK  126  A    between atoms: _310  and  _311
REMARK  127  A    between atoms: _314  and  _316
REMARK  128  A    between atoms: _316  and  _317
REMARK  129  A    between atoms: _316  and  _319
REMARK  130  A    between atoms: _322  and  _324
REMARK  131  A    between atoms: _324  and  _325
REMARK  132  A    between atoms: _324  and  _327
REMARK  133  A    between atoms: _327  and  _328
REMARK  134  A    between atoms: _328  and  _329
REMARK  135  A    between atoms: _329  and  _330
REMARK  136  A    between atoms: _330  and  _331
REMARK  137  A    between atoms: _335  and  _337
REMARK  138  A    between atoms: _337  and  _338
REMARK  139  A    between atoms: _337  and  _340
REMARK  140  A    between atoms: _340  and  _341
REMARK  141  A    between atoms: _341  and  _342
REMARK  142  A    between atoms: _344  and  _346
REMARK  143  A    between atoms: _346  and  _347
REMARK  144  A    between atoms: _346  and  _349
REMARK  145  A    between atoms: _349  and  _350
REMARK  146  A    between atoms: _353  and  _355
REMARK  147  A    between atoms: _355  and  _356
REMARK  148  A    between atoms: _358  and  _360
REMARK  149  A    between atoms: _360  and  _361
REMARK  150  A    between atoms: _363  and  _365
REMARK  151  A    between atoms: _365  and  _366
REMARK  152  A    between atoms: _365  and  _368
REMARK  153  A    between atoms: _368  and  _369
REMARK  154  A    between atoms: _372  and  _374
REMARK  155  A    between atoms: _374  and  _375
REMARK  156  A    between atoms: _377  and  _379
REMARK  157  A    between atoms: _379  and  _380
REMARK  158  A    between atoms: _382  and  _384
REMARK  159  A    between atoms: _384  and  _385
REMARK  160  A    between atoms: _384  and  _387
REMARK  161  A    between atoms: _387  and  _388
REMARK  162  A    between atoms: _394  and  _396
REMARK  163  A    between atoms: _396  and  _397
REMARK  164  A    between atoms: _396  and  _399
REMARK  165  A    between atoms: _399  and  _400
REMARK  166  A    between atoms: _403  and  _405
REMARK  167  A    between atoms: _405  and  _406
REMARK  168  A    between atoms: _405  and  _408
REMARK  169  A    between atoms: _408  and  _409
REMARK  170  A    between atoms: _412  and  _414
REMARK  171  A    between atoms: _414  and  _415
REMARK  172  A    between atoms: _414  and  _417
REMARK  173  A    between atoms: _417  and  _418
REMARK  174  A    between atoms: _422  and  _423
REMARK  175  A    between atoms: _428  and  _430
REMARK  176  A    between atoms: _430  and  _431
REMARK  177  A    between atoms: _430  and  _433
REMARK  178  A    between atoms: _436  and  _438
REMARK  179  A    between atoms: _438  and  _439
REMARK  180  A    between atoms: _438  and  _441
REMARK  181  A    between atoms: _441  and  _442
REMARK  182  A    between atoms: _447  and  _449
REMARK  183  A    between atoms: _449  and  _450
REMARK  184  A    between atoms: _449  and  _452
REMARK  185  A    between atoms: _452  and  _453
REMARK  186  A    between atoms: _456  and  _458
REMARK  187  A    between atoms: _458  and  _459
REMARK  188  A    between atoms: _458  and  _461
REMARK  189  A    between atoms: _461  and  _462
REMARK  190  A    between atoms: _465  and  _467
REMARK  191  A    between atoms: _467  and  _468
REMARK  192  A    between atoms: _470  and  _472
REMARK  193  A    between atoms: _472  and  _473
REMARK  194  A    between atoms: _472  and  _475
REMARK  195  A    between atoms: _475  and  _476
REMARK  196  A    between atoms: _476  and  _477
REMARK  197  A    between atoms: _477  and  _478
REMARK  198  A    between atoms: _487  and  _489
REMARK  199  A    between atoms: _489  and  _490
REMARK  200  A    between atoms: _489  and  _492
REMARK  201  A    between atoms: _492  and  _493
REMARK                            x       y       z     vdW  Elec       q    Type
REMARK                         _______ _______ _______ _____ _____    ______ ____
ROOT
ATOM      1  C   GLY A   3       7.789  20.688   5.610  0.00  0.00    +0.243 C 
ATOM      2  N   ILE A   4       9.018  20.189   5.576  0.00  0.00    -0.297 N 
ATOM      3  H   ILE A   4       9.781  20.758   5.995  0.00  0.00    +0.150 HD
ATOM      4  O   GLY A   3       6.828  20.183   5.025  0.00  0.00    -0.273 OA
ENDROOT
BRANCH   2   5
ATOM      5  CA  ILE A   4       9.374  18.909   4.998  0.00  0.00    +0.149 C 
BRANCH   5   6
ATOM      6  C   ILE A   4       9.040  17.968   6.133  0.00  0.00    +0.241 C 
ATOM      7  O   ILE A   4       9.621  18.092   7.210  0.00  0.00    -0.273 OA
ATOM      8  N   GLY A   5       8.062  17.096   5.954  0.00  0.00    -0.295 N 
ATOM      9  H   GLY A   5       7.542  17.073   5.054  0.00  0.00    +0.150 HD
BRANCH   8  10
ATOM     10  CA  GLY A   5       7.714  16.165   7.024  0.00  0.00    +0.176 C 
BRANCH  10  11
ATOM     11  C   GLY A   5       6.333  16.396   7.603  0.00  0.00    +0.243 C 
ATOM     12  O   GLY A   5       5.654  15.450   8.029  0.00  0.00    -0.273 OA
ATOM     13  N   GLY A   6       5.908  17.656   7.591  0.00  0.00    -0.296 N 
ATOM     14  H   GLY A   6       6.528  18.393   7.199  0.00  0.00    +0.150 HD
BRANCH  13  15
ATOM     15  CA  GLY A   6       4.609  18.035   8.107  0.00  0.00    +0.163 C 
BRANCH  15  16
ATOM     16  C   GLY A   6       4.573  19.399   8.774  0.00  0.00    +0.229 C 
ATOM     17  O   GLY A   6       5.423  20.257   8.543  0.00  0.00    -0.286 OA
ENDBRANCH  15  16
ENDBRANCH  13  15
ENDBRANCH  10  11
ENDBRANCH   8  10
ENDBRANCH   5   6
BRANCH   5  18
ATOM     18  CB  ILE A   4      10.920  18.876   4.747  0.00  0.00    +0.027 C 
ATOM     19  CG2 ILE A   4      11.446  17.463   4.607  0.00  0.00    +0.002 C 
BRANCH  18  20
ATOM     20  CG1 ILE A   4      11.289  19.742   3.550  0.00  0.00    +0.002 C 
ATOM     21  CD1 ILE A   4      10.813  19.176   2.251  0.00  0.00    +0.000 C 
ENDBRANCH  18  20
ENDBRANCH   5  18
ENDBRANCH   2   5
BRANCH   1  22
ATOM     22  CA  GLY A   3       7.662  22.037   6.303  0.00  0.00    +0.176 C 
BRANCH  22  24
ATOM     23  C   GLY A   2       5.817  23.348   7.156  0.00  0.00    +0.243 C 
ATOM     24  N   GLY A   3       6.372  22.162   6.951  0.00  0.00    -0.295 N 
ATOM     25  H   GLY A   3       5.872  21.305   7.261  0.00  0.00    +0.150 HD
ATOM     26  O   GLY A   2       6.344  24.408   6.846  0.00  0.00    -0.273 OA
BRANCH  23  27
ATOM     27  CA  GLY A   2       4.469  23.343   7.813  0.00  0.00    +0.176 C 
BRANCH  27  30
ATOM     28  C   ILE A   1       4.082  24.749   9.685  0.00  0.00    +0.238 C 
ATOM     29  O   ILE A   1       4.202  23.792  10.441  0.00  0.00    -0.274 OA
ATOM     30  N   GLY A   2       4.201  24.643   8.377  0.00  0.00    -0.296 N 
ATOM     31  H   GLY A   2       4.104  25.478   7.765  0.00  0.00    +0.150 HD
BRANCH  28  32
ATOM     32  CA  ILE A   1       3.812  26.125  10.239  0.00  0.00    +0.145 C 
BRANCH  32  33
ATOM     33  N   ILE A   1       3.001  25.928  11.425  0.00  0.00    -0.238 NA
ATOM     34  H   ILE A   1       3.448  25.571  12.293  0.00  0.00    +0.142 HD
ENDBRANCH  32  33
BRANCH  32  35
ATOM     35  CB  ILE A   1       5.188  26.735  10.537  0.00  0.00    +0.025 C 
ATOM     36  CG2 ILE A   1       5.079  28.162  10.984  0.00  0.00    +0.002 C 
BRANCH  35  37
ATOM     37  CG1 ILE A   1       5.891  25.921  11.600  0.00  0.00    +0.002 C 
ATOM     38  CD1 ILE A   1       7.301  26.348  11.731  0.00  0.00    +0.000 C 
ENDBRANCH  35  37
ENDBRANCH  32  35
ENDBRANCH  28  32
ENDBRANCH  27  30
ENDBRANCH  23  27
ENDBRANCH  22  24
ENDBRANCH   1  22
TORSDOF 16
REMARK  Name = ../refined-set-2016/1hpo/1hpo_pocket.pdb
REMARK  201 active torsions:
REMARK  status: ('A' for Active; 'I' for Inactive)
REMARK    1  A    between atoms: _1  and  _3
REMARK    2  A    between atoms: _3  and  _4
REMARK    3  A    between atoms: _3  and  _6
REMARK    4  A    between atoms: _6  and  _7
REMARK    5  A    between atoms: _7  and  _8
REMARK    6  A    between atoms: _8  and  _9
REMARK    7  A    between atoms: _19  and  _20
REMARK    8  A    between atoms: _25  and  _27
REMARK    9  A    between atoms: _27  and  _28
REMARK   10  A    between atoms: _27  and  _30
REMARK   11  A    between atoms: _30  and  _31
REMARK   12  A    between atoms: _34  and  _36
REMARK   13  A    between atoms: _36  and  _37
REMARK   14  A    between atoms: _36  and  _39
REMARK   15  A    between atoms: _39  and  _40
REMARK   16  A    between atoms: _40  and  _41
REMARK   17  A    between atoms: _44  and  _46
REMARK   18  A    between atoms: _46  and  _47
REMARK   19  A    between atoms: _50  and  _52
REMARK   20  A    between atoms: _52  and  _53
REMARK   21  A    between atoms: _52  and  _55
REMARK   22  A    between atoms: _55  and  _56
REMARK   23  A    between atoms: _59  and  _61
REMARK   24  A    between atoms: _61  and  _62
REMARK   25  A    between atoms: _61  and  _64
REMARK   26  A    between atoms: _64  and  _65
REMARK   27  A    between atoms: _68  and  _70
REMARK   28  A    between atoms: _70  and  _71
REMARK   29  A    between atoms: _70  and  _73
REMARK   30  A    between atoms: _73  and  _74
REMARK   31  A    between atoms: _77  and  _79
REMARK   32  A    between atoms: _79  and  _80
REMARK   33  A    between atoms: _79  and  _82
REMARK   34  A    between atoms: _82  and  _83
REMARK   35  A    between atoms: _86  and  _88
REMARK   36  A    between atoms: _88  and  _89
REMARK   37  A    between atoms: _91  and  _93
REMARK   38  A    between atoms: _93  and  _94
REMARK   39  A    between atoms: _97  and  _99
REMARK   40  A    between atoms: _99  and  _100
REMARK   41  A    between atoms: _99  and  _102
REMARK   42  A    between atoms: _102  and  _103
REMARK   43  A    between atoms: _106  and  _108
REMARK   44  A    between atoms: _108  and  _109
REMARK   45  A    between atoms: _108  and  _111
REMARK   46  A    between atoms: _111  and  _112
REMARK   47  A    between atoms: _115  and  _117
REMARK   48  A    between atoms: _117  and  _118
REMARK   49  A    between atoms: _117  and  _120
REMARK   50  A    between atoms: _120  and  _121
REMARK   51  A    between atoms: _124  and  _126
REMARK   52  A    between atoms: _126  and  _127
REMARK   53  A    between atoms: _129  and  _131
REMARK   54  A    between atoms: _131  and  _132
REMARK   55  A    between atoms: _134  and  _136
REMARK   56  A    between atoms: _136  and  _137
REMARK   57  A    between atoms: _136  and  _139
REMARK   58  A    between atoms: _139  and  _140
REMARK   59  A    between atoms: _143  and  _145
REMARK   60  A    between atoms: _145  and  _146
REMARK   61  A    between atoms: _148  and  _150
REMARK   62  A    between atoms: _150  and  _151
REMARK   63  A    between atoms: _153  and  _155
REMARK   64  A    between atoms: _155  and  _156
REMARK   65  A    between atoms: _155  and  _158
REMARK   66  A    between atoms: _158  and  _159
REMARK   67  A    between atoms: _163  and  _164
REMARK   68  A    between atoms: _169  and  _171
REMARK   69  A    between atoms: _171  and  _172
REMARK   70  A    between atoms: _171  and  _174
REMARK   71  A    between atoms: _177  and  _179
REMARK   72  A    between atoms: _179  and  _180
REMARK   73  A    between atoms: _179  and  _182
REMARK   74  A    between atoms: _182  and  _183
REMARK   75  A    between atoms: _188  and  _190
REMARK   76  A    between atoms: _190  and  _191
REMARK   77  A    between atoms: _190  and  _193
REMARK   78  A    between atoms: _193  and  _194
REMARK   79  A    between atoms: _197  and  _199
REMARK   80  A    between atoms: _199  and  _200
REMARK   81  A    between atoms: _199  and  _202
REMARK   82  A    between atoms: _202  and  _203
REMARK   83  A    between atoms: _206  and  _208
REMARK   84  A    between atoms: _208  and  _209
REMARK   85  A    between atoms: _208  and  _211
REMARK   86  A    between atoms: _211  and  _212
REMARK   87  A    between atoms: _212  and  _213
REMARK   88  A    between atoms: _213  and  _214
REMARK   89  A    between atoms: _223  and  _225
REMARK   90  A    between atoms: _225  and  _226
REMARK   91  A    between atoms: _225  and  _228
REMARK   92  A    between atoms: _228  and  _229
REMARK   93  A    between atoms: _229  and  _230
REMARK   94  A    between atoms: _230  and  _231
REMARK   95  A    between atoms: _240  and  _242
REMARK   96  A    between atoms: _242  and  _243
REMARK   97  A    between atoms: _242  and  _245
REMARK   98  A    between atoms: _245  and  _246
REMARK   99  A    between atoms: _249  and  _251
REMARK  100  A    between atoms: _251  and  _252
REMARK  101  A    between atoms: _251  and  _254
REMARK  102  A    between atoms: _254  and  _255
REMARK  103  A    between atoms: _258  and  _260
REMARK  104  A    between atoms: _260  and  _261
REMARK  105  A    between atoms: _260  and  _263
REMARK  106  A    between atoms: _263  and  _264
REMARK  107  A    between atoms: _267  and  _269
REMARK  108  A    between atoms: _269  and  _270
REMARK  109  A    between atoms: _269  and  _272
REMARK  110  A    between atoms: _272  and  _273
REMARK  111  A    between atoms: _276  and  _278
REMARK  112  A    between atoms: _278  and  _279
REMARK  113  A    between atoms: _281  and  _283
REMARK  114  A    between atoms: _283  and  _284
REMARK  115  A    between atoms: _287  and  _289
REMARK  116  A    between atoms: _289  and  _290
REMARK  117  A    between atoms: _289  and  _292
REMARK  118  A    between atoms: _292  and  _293
REMARK  119  A    between atoms: _296  and  _298
REMARK  120  A    between atoms: _298  and  _299
REMARK  121  A    between atoms: _298  and  _301
REMARK  122  A    between atoms: _301  and  _302
REMARK  123  A    between atoms: _305  and  _307
REMARK  124  A    between atoms: _307  and  _308
REMARK  125  A    between atoms: _307  and  _310
REMARK  126  A    between atoms: _310  and  _311
REMARK  127  A    between atoms: _314  and  _316
REMARK  128  A    between atoms: _316  and  _317
REMARK  129  A    between atoms: _316  and  _319
REMARK  130  A    between atoms: _322  and  _324
REMARK  131  A    between atoms: _324  and  _325
REMARK  132  A    between atoms: _324  and  _327
REMARK  133  A    between atoms: _327  and  _328
REMARK  134  A    between atoms: _328  and  _329
REMARK  135  A    between atoms: _329  and  _330
REMARK  136  A    between atoms: _330  and  _331
REMARK  137  A    between atoms: _335  and  _337
REMARK  138  A    between atoms: _337  and  _338
REMARK  139  A    between atoms: _337  and  _340
REMARK  140  A    between atoms: _340  and  _341
REMARK  141  A    between atoms: _341  and  _342
REMARK  142  A    between atoms: _344  and  _346
REMARK  143  A    between atoms: _346  and  _347
REMARK  144  A    between atoms: _346  and  _349
REMARK  145  A    between atoms: _349  and  _350
REMARK  146  A    between atoms: _353  and  _355
REMARK  147  A    between atoms: _355  and  _356
REMARK  148  A    between atoms: _358  and  _360
REMARK  149  A    between atoms: _360  and  _361
REMARK  150  A    between atoms: _363  and  _365
REMARK  151  A    between atoms: _365  and  _366
REMARK  152  A    between atoms: _365  and  _368
REMARK  153  A    between atoms: _368  and  _369
REMARK  154  A    between atoms: _372  and  _374
REMARK  155  A    between atoms: _374  and  _375
REMARK  156  A    between atoms: _377  and  _379
REMARK  157  A    between atoms: _379  and  _380
REMARK  158  A    between atoms: _382  and  _384
REMARK  159  A    between atoms: _384  and  _385
REMARK  160  A    between atoms: _384  and  _387
REMARK  161  A    between atoms: _387  and  _388
REMARK  162  A    between atoms: _394  and  _396
REMARK  163  A    between atoms: _396  and  _397
REMARK  164  A    between atoms: _396  and  _399
REMARK  165  A    between atoms: _399  and  _400
REMARK  166  A    between atoms: _403  and  _405
REMARK  167  A    between atoms: _405  and  _406
REMARK  168  A    between atoms: _405  and  _408
REMARK  169  A    between atoms: _408  and  _409
REMARK  170  A    between atoms: _412  and  _414
REMARK  171  A    between atoms: _414  and  _415
REMARK  172  A    between atoms: _414  and  _417
REMARK  173  A    between atoms: _417  and  _418
REMARK  174  A    between atoms: _422  and  _423
REMARK  175  A    between atoms: _428  and  _430
REMARK  176  A    between atoms: _430  and  _431
REMARK  177  A    between atoms: _430  and  _433
REMARK  178  A    between atoms: _436  and  _438
REMARK  179  A    between atoms: _438  and  _439
REMARK  180  A    between atoms: _438  and  _441
REMARK  181  A    between atoms: _441  and  _442
REMARK  182  A    between atoms: _447  and  _449
REMARK  183  A    between atoms: _449  and  _450
REMARK  184  A    between atoms: _449  and  _452
REMARK  185  A    between atoms: _452  and  _453
REMARK  186  A    between atoms: _456  and  _458
REMARK  187  A    between atoms: _458  and  _459
REMARK  188  A    between atoms: _458  and  _461
REMARK  189  A    between atoms: _461  and  _462
REMARK  190  A    between atoms: _465  and  _467
REMARK  191  A    between atoms: _467  and  _468
REMARK  192  A    between atoms: _470  and  _472
REMARK  193  A    between atoms: _472  and  _473
REMARK  194  A    between atoms: _472  and  _475
REMARK  195  A    between atoms: _475  and  _476
REMARK  196  A    between atoms: _476  and  _477
REMARK  197  A    between atoms: _477  and  _478
REMARK  198  A    between atoms: _487  and  _489
REMARK  199  A    between atoms: _489  and  _490
REMARK  200  A    between atoms: _489  and  _492
REMARK  201  A    between atoms: _492  and  _493
REMARK                            x       y       z     vdW  Elec       q    Type
REMARK                         _______ _______ _______ _____ _____    ______ ____
ROOT
ATOM      1  CA  ASN A   4      17.067  27.255  15.014  0.00  0.00    +0.158 C 
ENDROOT
BRANCH   1   3
ATOM      2  C   VAL A   3      16.664  24.927  14.478  0.00  0.00    +0.241 C 
ATOM      3  N   ASN A   4      17.480  25.862  14.948  0.00  0.00    -0.297 N 
ATOM      4  H   ASN A   4      18.430  25.594  15.275  0.00  0.00    +0.150 HD
ATOM      5  O   VAL A   3      15.497  25.155  14.161  0.00  0.00    -0.273 OA
BRANCH   2   6
ATOM      6  CA  VAL A   3      17.211  23.512  14.424  0.00  0.00    +0.149 C 
BRANCH   6   9
ATOM      7  C   PRO A   2      16.246  21.478  15.338  0.00  0.00    +0.241 C 
ATOM      8  O   PRO A   2      17.282  21.199  15.939  0.00  0.00    -0.273 OA
ATOM      9  N   VAL A   3      16.111  22.582  14.609  0.00  0.00    -0.297 N 
ATOM     10  H   VAL A   3      15.195  22.784  14.160  0.00  0.00    +0.150 HD
BRANCH   7  14
ATOM     11  C   THR A   1      13.156  22.046  16.078  0.00  0.00    +0.244 C 
ATOM     12  O   THR A   1      13.624  22.230  17.206  0.00  0.00    -0.273 OA
ATOM     13  N   PRO A   2      13.790  21.301  15.153  0.00  0.00    -0.272 N 
ATOM     14  CA  PRO A   2      15.035  20.591  15.442  0.00  0.00    +0.152 C 
ATOM     15  CB  PRO A   2      15.040  19.492  14.386  0.00  0.00    +0.031 C 
ATOM     16  CG  PRO A   2      14.497  20.206  13.198  0.00  0.00    +0.024 C 
ATOM     17  CD  PRO A   2      13.357  21.043  13.765  0.00  0.00    +0.094 C 
BRANCH  11  18
ATOM     18  CA  THR A   1      11.859  22.733  15.664  0.00  0.00    +0.172 C 
BRANCH  18  19
ATOM     19  CB  THR A   1      12.190  24.102  15.073  0.00  0.00    +0.135 C 
ATOM     20  CG2 THR A   1      12.932  24.929  16.063  0.00  0.00    +0.034 C 
BRANCH  19  21
ATOM     21  OG1 THR A   1      12.992  23.927  13.906  0.00  0.00    -0.383 OA
ATOM     22  HG1 THR A   1      13.829  23.458  14.150  0.00  0.00    +0.210 HD
ENDBRANCH  19  21
ENDBRANCH  18  19
BRANCH  18  23
ATOM     23  N   THR A   1      11.040  22.827  16.877  0.00  0.00    -0.236 NA
ATOM     24  H   THR A   1      11.069  23.694  17.451  0.00  0.00    +0.142 HD
ENDBRANCH  18  23
ENDBRANCH  11  18
ENDBRANCH   7  14
ENDBRANCH   6   9
BRANCH   6  25
ATOM     25  CB  VAL A   3      17.935  23.224  13.065  0.00  0.00    +0.027 C 
ATOM     26  CG2 VAL A   3      19.130  24.152  12.867  0.00  0.00    +0.002 C 
ATOM     27  CG1 VAL A   3      16.972  23.317  11.906  0.00  0.00    +0.002 C 
ENDBRANCH   6  25
ENDBRANCH   2   6
ENDBRANCH   1   3
BRANCH   1  28
ATOM     28  C   ASN A   4      17.252  27.768  13.603  0.00  0.00    +0.241 C 
ATOM     29  N   ILE A   5      16.233  28.399  13.045  0.00  0.00    -0.297 N 
ATOM     30  H   ILE A   5      15.364  28.557  13.595  0.00  0.00    +0.150 HD
ATOM     31  O   ASN A   4      18.324  27.603  13.031  0.00  0.00    -0.273 OA
BRANCH  29  32
ATOM     32  CA  ILE A   5      16.310  28.872  11.681  0.00  0.00    +0.149 C 
BRANCH  32  33
ATOM     33  C   ILE A   5      15.986  30.345  11.588  0.00  0.00    +0.241 C 
ATOM     34  O   ILE A   5      14.992  30.798  12.156  0.00  0.00    -0.273 OA
ATOM     35  N   ILE A   6      16.835  31.096  10.891  0.00  0.00    -0.298 N 
ATOM     36  H   ILE A   6      17.682  30.650  10.484  0.00  0.00    +0.150 HD
BRANCH  35  37
ATOM     37  CA  ILE A   6      16.620  32.525  10.677  0.00  0.00    +0.137 C 
BRANCH  37  38
ATOM     38  CB  ILE A   6      17.930  33.358  10.715  0.00  0.00    +0.026 C 
ATOM     39  CG2 ILE A   6      17.612  34.816  10.464  0.00  0.00    +0.002 C 
BRANCH  38  40
ATOM     40  CG1 ILE A   6      18.644  33.220  12.055  0.00  0.00    +0.002 C 
ATOM     41  CD1 ILE A   6      17.831  33.683  13.224  0.00  0.00    +0.000 C 
ENDBRANCH  38  40
ENDBRANCH  37  38
BRANCH  37  42
ATOM     42  C   ILE A   6      16.079  32.612   9.259  0.00  0.00    +0.227 C 
ATOM     43  O   ILE A   6      16.786  32.270   8.315  0.00  0.00    -0.286 OA
ENDBRANCH  37  42
ENDBRANCH  35  37
ENDBRANCH  32  33
BRANCH  32  44
ATOM     44  CB  ILE A   5      15.289  28.100  10.841  0.00  0.00    +0.027 C 
ATOM     45  CG2 ILE A   5      15.265  28.569   9.434  0.00  0.00    +0.002 C 
BRANCH  44  46
ATOM     46  CG1 ILE A   5      15.594  26.611  10.874  0.00  0.00    +0.002 C 
ATOM     47  CD1 ILE A   5      14.437  25.764  10.352  0.00  0.00    +0.000 C 
ENDBRANCH  44  46
ENDBRANCH  32  44
ENDBRANCH  29  32
ENDBRANCH   1  28
BRANCH   1  48
ATOM     48  CB  ASN A   4      17.964  28.043  15.955  0.00  0.00    +0.114 C 
BRANCH  48  49
ATOM     49  CG  ASN A   4      17.916  27.531  17.373  0.00  0.00    +0.222 C 
ATOM     50  ND2 ASN A   4      19.084  27.402  17.974  0.00  0.00    -0.329 N 
ATOM     51 HD21 ASN A   4      19.130  27.053  18.953  0.00  0.00    +0.145 HD
ATOM     52 HD22 ASN A   4      19.959  27.649  17.469  0.00  0.00    +0.145 HD
ATOM     53  OD1 ASN A   4      16.843  27.251  17.928  0.00  0.00    -0.275 OA
ENDBRANCH  48  49
ENDBRANCH   1  48
TORSDOF 20
REMARK  Name = ../refined-set-2016/1hpo/1hpo_pocket.pdb
REMARK  201 active torsions:
REMARK  status: ('A' for Active; 'I' for Inactive)
REMARK    1  A    between atoms: _1  and  _3
REMARK    2  A    between atoms: _3  and  _4
REMARK    3  A    between atoms: _3  and  _6
REMARK    4  A    between atoms: _6  and  _7
REMARK    5  A    between atoms: _7  and  _8
REMARK    6  A    between atoms: _8  and  _9
REMARK    7  A    between atoms: _19  and  _20
REMARK    8  A    between atoms: _25  and  _27
REMARK    9  A    between atoms: _27  and  _28
REMARK   10  A    between atoms: _27  and  _30
REMARK   11  A    between atoms: _30  and  _31
REMARK   12  A    between atoms: _34  and  _36
REMARK   13  A    between atoms: _36  and  _37
REMARK   14  A    between atoms: _36  and  _39
REMARK   15  A    between atoms: _39  and  _40
REMARK   16  A    between atoms: _40  and  _41
REMARK   17  A    between atoms: _44  and  _46
REMARK   18  A    between atoms: _46  and  _47
REMARK   19  A    between atoms: _50  and  _52
REMARK   20  A    between atoms: _52  and  _53
REMARK   21  A    between atoms: _52  and  _55
REMARK   22  A    between atoms: _55  and  _56
REMARK   23  A    between atoms: _59  and  _61
REMARK   24  A    between atoms: _61  and  _62
REMARK   25  A    between atoms: _61  and  _64
REMARK   26  A    between atoms: _64  and  _65
REMARK   27  A    between atoms: _68  and  _70
REMARK   28  A    between atoms: _70  and  _71
REMARK   29  A    between atoms: _70  and  _73
REMARK   30  A    between atoms: _73  and  _74
REMARK   31  A    between atoms: _77  and  _79
REMARK   32  A    between atoms: _79  and  _80
REMARK   33  A    between atoms: _79  and  _82
REMARK   34  A    between atoms: _82  and  _83
REMARK   35  A    between atoms: _86  and  _88
REMARK   36  A    between atoms: _88  and  _89
REMARK   37  A    between atoms: _91  and  _93
REMARK   38  A    between atoms: _93  and  _94
REMARK   39  A    between atoms: _97  and  _99
REMARK   40  A    between atoms: _99  and  _100
REMARK   41  A    between atoms: _99  and  _102
REMARK   42  A    between atoms: _102  and  _103
REMARK   43  A    between atoms: _106  and  _108
REMARK   44  A    between atoms: _108  and  _109
REMARK   45  A    between atoms: _108  and  _111
REMARK   46  A    between atoms: _111  and  _112
REMARK   47  A    between atoms: _115  and  _117
REMARK   48  A    between atoms: _117  and  _118
REMARK   49  A    between atoms: _117  and  _120
REMARK   50  A    between atoms: _120  and  _121
REMARK   51  A    between atoms: _124  and  _126
REMARK   52  A    between atoms: _126  and  _127
REMARK   53  A    between atoms: _129  and  _131
REMARK   54  A    between atoms: _131  and  _132
REMARK   55  A    between atoms: _134  and  _136
REMARK   56  A    between atoms: _136  and  _137
REMARK   57  A    between atoms: _136  and  _139
REMARK   58  A    between atoms: _139  and  _140
REMARK   59  A    between atoms: _143  and  _145
REMARK   60  A    between atoms: _145  and  _146
REMARK   61  A    between atoms: _148  and  _150
REMARK   62  A    between atoms: _150  and  _151
REMARK   63  A    between atoms: _153  and  _155
REMARK   64  A    between atoms: _155  and  _156
REMARK   65  A    between atoms: _155  and  _158
REMARK   66  A    between atoms: _158  and  _159
REMARK   67  A    between atoms: _163  and  _164
REMARK   68  A    between atoms: _169  and  _171
REMARK   69  A    between atoms: _171  and  _172
REMARK   70  A    between atoms: _171  and  _174
REMARK   71  A    between atoms: _177  and  _179
REMARK   72  A    between atoms: _179  and  _180
REMARK   73  A    between atoms: _179  and  _182
REMARK   74  A    between atoms: _182  and  _183
REMARK   75  A    between atoms: _188  and  _190
REMARK   76  A    between atoms: _190  and  _191
REMARK   77  A    between atoms: _190  and  _193
REMARK   78  A    between atoms: _193  and  _194
REMARK   79  A    between atoms: _197  and  _199
REMARK   80  A    between atoms: _199  and  _200
REMARK   81  A    between atoms: _199  and  _202
REMARK   82  A    between atoms: _202  and  _203
REMARK   83  A    between atoms: _206  and  _208
REMARK   84  A    between atoms: _208  and  _209
REMARK   85  A    between atoms: _208  and  _211
REMARK   86  A    between atoms: _211  and  _212
REMARK   87  A    between atoms: _212  and  _213
REMARK   88  A    between atoms: _213  and  _214
REMARK   89  A    between atoms: _223  and  _225
REMARK   90  A    between atoms: _225  and  _226
REMARK   91  A    between atoms: _225  and  _228
REMARK   92  A    between atoms: _228  and  _229
REMARK   93  A    between atoms: _229  and  _230
REMARK   94  A    between atoms: _230  and  _231
REMARK   95  A    between atoms: _240  and  _242
REMARK   96  A    between atoms: _242  and  _243
REMARK   97  A    between atoms: _242  and  _245
REMARK   98  A    between atoms: _245  and  _246
REMARK   99  A    between atoms: _249  and  _251
REMARK  100  A    between atoms: _251  and  _252
REMARK  101  A    between atoms: _251  and  _254
REMARK  102  A    between atoms: _254  and  _255
REMARK  103  A    between atoms: _258  and  _260
REMARK  104  A    between atoms: _260  and  _261
REMARK  105  A    between atoms: _260  and  _263
REMARK  106  A    between atoms: _263  and  _264
REMARK  107  A    between atoms: _267  and  _269
REMARK  108  A    between atoms: _269  and  _270
REMARK  109  A    between atoms: _269  and  _272
REMARK  110  A    between atoms: _272  and  _273
REMARK  111  A    between atoms: _276  and  _278
REMARK  112  A    between atoms: _278  and  _279
REMARK  113  A    between atoms: _281  and  _283
REMARK  114  A    between atoms: _283  and  _284
REMARK  115  A    between atoms: _287  and  _289
REMARK  116  A    between atoms: _289  and  _290
REMARK  117  A    between atoms: _289  and  _292
REMARK  118  A    between atoms: _292  and  _293
REMARK  119  A    between atoms: _296  and  _298
REMARK  120  A    between atoms: _298  and  _299
REMARK  121  A    between atoms: _298  and  _301
REMARK  122  A    between atoms: _301  and  _302
REMARK  123  A    between atoms: _305  and  _307
REMARK  124  A    between atoms: _307  and  _308
REMARK  125  A    between atoms: _307  and  _310
REMARK  126  A    between atoms: _310  and  _311
REMARK  127  A    between atoms: _314  and  _316
REMARK  128  A    between atoms: _316  and  _317
REMARK  129  A    between atoms: _316  and  _319
REMARK  130  A    between atoms: _322  and  _324
REMARK  131  A    between atoms: _324  and  _325
REMARK  132  A    between atoms: _324  and  _327
REMARK  133  A    between atoms: _327  and  _328
REMARK  134  A    between atoms: _328  and  _329
REMARK  135  A    between atoms: _329  and  _330
REMARK  136  A    between atoms: _330  and  _331
REMARK  137  A    between atoms: _335  and  _337
REMARK  138  A    between atoms: _337  and  _338
REMARK  139  A    between atoms: _337  and  _340
REMARK  140  A    between atoms: _340  and  _341
REMARK  141  A    between atoms: _341  and  _342
REMARK  142  A    between atoms: _344  and  _346
REMARK  143  A    between atoms: _346  and  _347
REMARK  144  A    between atoms: _346  and  _349
REMARK  145  A    between atoms: _349  and  _350
REMARK  146  A    between atoms: _353  and  _355
REMARK  147  A    between atoms: _355  and  _356
REMARK  148  A    between atoms: _358  and  _360
REMARK  149  A    between atoms: _360  and  _361
REMARK  150  A    between atoms: _363  and  _365
REMARK  151  A    between atoms: _365  and  _366
REMARK  152  A    between atoms: _365  and  _368
REMARK  153  A    between atoms: _368  and  _369
REMARK  154  A    between atoms: _372  and  _374
REMARK  155  A    between atoms: _374  and  _375
REMARK  156  A    between atoms: _377  and  _379
REMARK  157  A    between atoms: _379  and  _380
REMARK  158  A    between atoms: _382  and  _384
REMARK  159  A    between atoms: _384  and  _385
REMARK  160  A    between atoms: _384  and  _387
REMARK  161  A    between atoms: _387  and  _388
REMARK  162  A    between atoms: _394  and  _396
REMARK  163  A    between atoms: _396  and  _397
REMARK  164  A    between atoms: _396  and  _399
REMARK  165  A    between atoms: _399  and  _400
REMARK  166  A    between atoms: _403  and  _405
REMARK  167  A    between atoms: _405  and  _406
REMARK  168  A    between atoms: _405  and  _408
REMARK  169  A    between atoms: _408  and  _409
REMARK  170  A    between atoms: _412  and  _414
REMARK  171  A    between atoms: _414  and  _415
REMARK  172  A    between atoms: _414  and  _417
REMARK  173  A    between atoms: _417  and  _418
REMARK  174  A    between atoms: _422  and  _423
REMARK  175  A    between atoms: _428  and  _430
REMARK  176  A    between atoms: _430  and  _431
REMARK  177  A    between atoms: _430  and  _433
REMARK  178  A    between atoms: _436  and  _438
REMARK  179  A    between atoms: _438  and  _439
REMARK  180  A    between atoms: _438  and  _441
REMARK  181  A    between atoms: _441  and  _442
REMARK  182  A    between atoms: _447  and  _449
REMARK  183  A    between atoms: _449  and  _450
REMARK  184  A    between atoms: _449  and  _452
REMARK  185  A    between atoms: _452  and  _453
REMARK  186  A    between atoms: _456  and  _458
REMARK  187  A    between atoms: _458  and  _459
REMARK  188  A    between atoms: _458  and  _461
REMARK  189  A    between atoms: _461  and  _462
REMARK  190  A    between atoms: _465  and  _467
REMARK  191  A    between atoms: _467  and  _468
REMARK  192  A    between atoms: _470  and  _472
REMARK  193  A    between atoms: _472  and  _473
REMARK  194  A    between atoms: _472  and  _475
REMARK  195  A    between atoms: _475  and  _476
REMARK  196  A    between atoms: _476  and  _477
REMARK  197  A    between atoms: _477  and  _478
REMARK  198  A    between atoms: _487  and  _489
REMARK  199  A    between atoms: _489  and  _490
REMARK  200  A    between atoms: _489  and  _492
REMARK  201  A    between atoms: _492  and  _493
REMARK                            x       y       z     vdW  Elec       q    Type
REMARK                         _______ _______ _______ _____ _____    ______ ____
ROOT
ATOM      1  NE  ARG A   1      11.160  35.427   1.679  0.00  0.00    -0.265 N 
ATOM      2  CZ  ARG A   1       9.841  35.288   1.734  0.00  0.00    +0.342 C 
ATOM      3  NH2 ARG A   1       9.291  34.123   2.005  0.00  0.00    -0.292 N 
ATOM      4 HH21 ARG A   1       9.892  33.292   2.180  0.00  0.00    +0.255 HD
ATOM      5 HH22 ARG A   1       8.256  34.033   2.044  0.00  0.00    +0.255 HD
ATOM      6  NH1 ARG A   1       9.059  36.314   1.473  0.00  0.00    -0.292 N 
ATOM      7 HH11 ARG A   1       8.026  36.204   1.516  0.00  0.00    +0.255 HD
ATOM      8 HH12 ARG A   1       9.474  37.234   1.224  0.00  0.00    +0.255 HD
ATOM      9  HE  ARG A   1      11.537  36.371   1.460  0.00  0.00    +0.259 HD
ENDROOT
BRANCH   1  10
ATOM     10  CD  ARG A   1      12.116  34.356   1.903  0.00  0.00    +0.174 C 
BRANCH  10  11
ATOM     11  CG  ARG A   1      13.162  34.782   2.898  0.00  0.00    +0.045 C 
BRANCH  11  12
ATOM     12  CB  ARG A   1      12.511  35.532   4.028  0.00  0.00    +0.029 C 
BRANCH  12  13
ATOM     13  CA  ARG A   1      13.422  35.791   5.203  0.00  0.00    +0.133 C 
BRANCH  13  14
ATOM     14  N   ARG A   1      13.541  34.580   5.997  0.00  0.00    -0.239 NA
ATOM     15  H   ARG A   1      13.084  33.713   5.649  0.00  0.00    +0.142 HD
ENDBRANCH  13  14
BRANCH  13  16
ATOM     16  C   ARG A   1      12.990  37.060   5.924  0.00  0.00    +0.224 C 
ATOM     17  O   ARG A   1      13.669  38.064   5.823  0.00  0.00    -0.287 OA
ENDBRANCH  13  16
ENDBRANCH  12  13
ENDBRANCH  11  12
ENDBRANCH  10  11
ENDBRANCH   1  10
TORSDOF 6
REMARK  Name = ../refined-set-2016/1hpo/1hpo_pocket.pdb
REMARK  201 active torsions:
REMARK  status: ('A' for Active; 'I' for Inactive)
REMARK    1  A    between atoms: _1  and  _3
REMARK    2  A    between atoms: _3  and  _4
REMARK    3  A    between atoms: _3  and  _6
REMARK    4  A    between atoms: _6  and  _7
REMARK    5  A    between atoms: _7  and  _8
REMARK    6  A    between atoms: _8  and  _9
REMARK    7  A    between atoms: _19  and  _20
REMARK    8  A    between atoms: _25  and  _27
REMARK    9  A    between atoms: _27  and  _28
REMARK   10  A    between atoms: _27  and  _30
REMARK   11  A    between atoms: _30  and  _31
REMARK   12  A    between atoms: _34  and  _36
REMARK   13  A    between atoms: _36  and  _37
REMARK   14  A    between atoms: _36  and  _39
REMARK   15  A    between atoms: _39  and  _40
REMARK   16  A    between atoms: _40  and  _41
REMARK   17  A    between atoms: _44  and  _46
REMARK   18  A    between atoms: _46  and  _47
REMARK   19  A    between atoms: _50  and  _52
REMARK   20  A    between atoms: _52  and  _53
REMARK   21  A    between atoms: _52  and  _55
REMARK   22  A    between atoms: _55  and  _56
REMARK   23  A    between atoms: _59  and  _61
REMARK   24  A    between atoms: _61  and  _62
REMARK   25  A    between atoms: _61  and  _64
REMARK   26  A    between atoms: _64  and  _65
REMARK   27  A    between atoms: _68  and  _70
REMARK   28  A    between atoms: _70  and  _71
REMARK   29  A    between atoms: _70  and  _73
REMARK   30  A    between atoms: _73  and  _74
REMARK   31  A    between atoms: _77  and  _79
REMARK   32  A    between atoms: _79  and  _80
REMARK   33  A    between atoms: _79  and  _82
REMARK   34  A    between atoms: _82  and  _83
REMARK   35  A    between atoms: _86  and  _88
REMARK   36  A    between atoms: _88  and  _89
REMARK   37  A    between atoms: _91  and  _93
REMARK   38  A    between atoms: _93  and  _94
REMARK   39  A    between atoms: _97  and  _99
REMARK   40  A    between atoms: _99  and  _100
REMARK   41  A    between atoms: _99  and  _102
REMARK   42  A    between atoms: _102  and  _103
REMARK   43  A    between atoms: _106  and  _108
REMARK   44  A    between atoms: _108  and  _109
REMARK   45  A    between atoms: _108  and  _111
REMARK   46  A    between atoms: _111  and  _112
REMARK   47  A    between atoms: _115  and  _117
REMARK   48  A    between atoms: _117  and  _118
REMARK   49  A    between atoms: _117  and  _120
REMARK   50  A    between atoms: _120  and  _121
REMARK   51  A    between atoms: _124  and  _126
REMARK   52  A    between atoms: _126  and  _127
REMARK   53  A    between atoms: _129  and  _131
REMARK   54  A    between atoms: _131  and  _132
REMARK   55  A    between atoms: _134  and  _136
REMARK   56  A    between atoms: _136  and  _137
REMARK   57  A    between atoms: _136  and  _139
REMARK   58  A    between atoms: _139  and  _140
REMARK   59  A    between atoms: _143  and  _145
REMARK   60  A    between atoms: _145  and  _146
REMARK   61  A    between atoms: _148  and  _150
REMARK   62  A    between atoms: _150  and  _151
REMARK   63  A    between atoms: _153  and  _155
REMARK   64  A    between atoms: _155  and  _156
REMARK   65  A    between atoms: _155  and  _158
REMARK   66  A    between atoms: _158  and  _159
REMARK   67  A    between atoms: _163  and  _164
REMARK   68  A    between atoms: _169  and  _171
REMARK   69  A    between atoms: _171  and  _172
REMARK   70  A    between atoms: _171  and  _174
REMARK   71  A    between atoms: _177  and  _179
REMARK   72  A    between atoms: _179  and  _180
REMARK   73  A    between atoms: _179  and  _182
REMARK   74  A    between atoms: _182  and  _183
REMARK   75  A    between atoms: _188  and  _190
REMARK   76  A    between atoms: _190  and  _191
REMARK   77  A    between atoms: _190  and  _193
REMARK   78  A    between atoms: _193  and  _194
REMARK   79  A    between atoms: _197  and  _199
REMARK   80  A    between atoms: _199  and  _200
REMARK   81  A    between atoms: _199  and  _202
REMARK   82  A    between atoms: _202  and  _203
REMARK   83  A    between atoms: _206  and  _208
REMARK   84  A    between atoms: _208  and  _209
REMARK   85  A    between atoms: _208  and  _211
REMARK   86  A    between atoms: _211  and  _212
REMARK   87  A    between atoms: _212  and  _213
REMARK   88  A    between atoms: _213  and  _214
REMARK   89  A    between atoms: _223  and  _225
REMARK   90  A    between atoms: _225  and  _226
REMARK   91  A    between atoms: _225  and  _228
REMARK   92  A    between atoms: _228  and  _229
REMARK   93  A    between atoms: _229  and  _230
REMARK   94  A    between atoms: _230  and  _231
REMARK   95  A    between atoms: _240  and  _242
REMARK   96  A    between atoms: _242  and  _243
REMARK   97  A    between atoms: _242  and  _245
REMARK   98  A    between atoms: _245  and  _246
REMARK   99  A    between atoms: _249  and  _251
REMARK  100  A    between atoms: _251  and  _252
REMARK  101  A    between atoms: _251  and  _254
REMARK  102  A    between atoms: _254  and  _255
REMARK  103  A    between atoms: _258  and  _260
REMARK  104  A    between atoms: _260  and  _261
REMARK  105  A    between atoms: _260  and  _263
REMARK  106  A    between atoms: _263  and  _264
REMARK  107  A    between atoms: _267  and  _269
REMARK  108  A    between atoms: _269  and  _270
REMARK  109  A    between atoms: _269  and  _272
REMARK  110  A    between atoms: _272  and  _273
REMARK  111  A    between atoms: _276  and  _278
REMARK  112  A    between atoms: _278  and  _279
REMARK  113  A    between atoms: _281  and  _283
REMARK  114  A    between atoms: _283  and  _284
REMARK  115  A    between atoms: _287  and  _289
REMARK  116  A    between atoms: _289  and  _290
REMARK  117  A    between atoms: _289  and  _292
REMARK  118  A    between atoms: _292  and  _293
REMARK  119  A    between atoms: _296  and  _298
REMARK  120  A    between atoms: _298  and  _299
REMARK  121  A    between atoms: _298  and  _301
REMARK  122  A    between atoms: _301  and  _302
REMARK  123  A    between atoms: _305  and  _307
REMARK  124  A    between atoms: _307  and  _308
REMARK  125  A    between atoms: _307  and  _310
REMARK  126  A    between atoms: _310  and  _311
REMARK  127  A    between atoms: _314  and  _316
REMARK  128  A    between atoms: _316  and  _317
REMARK  129  A    between atoms: _316  and  _319
REMARK  130  A    between atoms: _322  and  _324
REMARK  131  A    between atoms: _324  and  _325
REMARK  132  A    between atoms: _324  and  _327
REMARK  133  A    between atoms: _327  and  _328
REMARK  134  A    between atoms: _328  and  _329
REMARK  135  A    between atoms: _329  and  _330
REMARK  136  A    between atoms: _330  and  _331
REMARK  137  A    between atoms: _335  and  _337
REMARK  138  A    between atoms: _337  and  _338
REMARK  139  A    between atoms: _337  and  _340
REMARK  140  A    between atoms: _340  and  _341
REMARK  141  A    between atoms: _341  and  _342
REMARK  142  A    between atoms: _344  and  _346
REMARK  143  A    between atoms: _346  and  _347
REMARK  144  A    between atoms: _346  and  _349
REMARK  145  A    between atoms: _349  and  _350
REMARK  146  A    between atoms: _353  and  _355
REMARK  147  A    between atoms: _355  and  _356
REMARK  148  A    between atoms: _358  and  _360
REMARK  149  A    between atoms: _360  and  _361
REMARK  150  A    between atoms: _363  and  _365
REMARK  151  A    between atoms: _365  and  _366
REMARK  152  A    between atoms: _365  and  _368
REMARK  153  A    between atoms: _368  and  _369
REMARK  154  A    between atoms: _372  and  _374
REMARK  155  A    between atoms: _374  and  _375
REMARK  156  A    between atoms: _377  and  _379
REMARK  157  A    between atoms: _379  and  _380
REMARK  158  A    between atoms: _382  and  _384
REMARK  159  A    between atoms: _384  and  _385
REMARK  160  A    between atoms: _384  and  _387
REMARK  161  A    between atoms: _387  and  _388
REMARK  162  A    between atoms: _394  and  _396
REMARK  163  A    between atoms: _396  and  _397
REMARK  164  A    between atoms: _396  and  _399
REMARK  165  A    between atoms: _399  and  _400
REMARK  166  A    between atoms: _403  and  _405
REMARK  167  A    between atoms: _405  and  _406
REMARK  168  A    between atoms: _405  and  _408
REMARK  169  A    between atoms: _408  and  _409
REMARK  170  A    between atoms: _412  and  _414
REMARK  171  A    between atoms: _414  and  _415
REMARK  172  A    between atoms: _414  and  _417
REMARK  173  A    between atoms: _417  and  _418
REMARK  174  A    between atoms: _422  and  _423
REMARK  175  A    between atoms: _428  and  _430
REMARK  176  A    between atoms: _430  and  _431
REMARK  177  A    between atoms: _430  and  _433
REMARK  178  A    between atoms: _436  and  _438
REMARK  179  A    between atoms: _438  and  _439
REMARK  180  A    between atoms: _438  and  _441
REMARK  181  A    between atoms: _441  and  _442
REMARK  182  A    between atoms: _447  and  _449
REMARK  183  A    between atoms: _449  and  _450
REMARK  184  A    between atoms: _449  and  _452
REMARK  185  A    between atoms: _452  and  _453
REMARK  186  A    between atoms: _456  and  _458
REMARK  187  A    between atoms: _458  and  _459
REMARK  188  A    between atoms: _458  and  _461
REMARK  189  A    between atoms: _461  and  _462
REMARK  190  A    between atoms: _465  and  _467
REMARK  191  A    between atoms: _467  and  _468
REMARK  192  A    between atoms: _470  and  _472
REMARK  193  A    between atoms: _472  and  _473
REMARK  194  A    between atoms: _472  and  _475
REMARK  195  A    between atoms: _475  and  _476
REMARK  196  A    between atoms: _476  and  _477
REMARK  197  A    between atoms: _477  and  _478
REMARK  198  A    between atoms: _487  and  _489
REMARK  199  A    between atoms: _489  and  _490
REMARK  200  A    between atoms: _489  and  _492
REMARK  201  A    between atoms: _492  and  _493
REMARK                            x       y       z     vdW  Elec       q    Type
REMARK                         _______ _______ _______ _____ _____    ______ ____
ROOT
ATOM      1  NE  ARG A   1       6.777  31.602   0.400  0.00  0.00    -0.265 N 
ATOM      2  HE  ARG A   1       7.124  32.184   1.189  0.00  0.00    +0.259 HD
ATOM      3  CZ  ARG A   1       5.607  30.993   0.552  0.00  0.00    +0.342 C 
ATOM      4  NH2 ARG A   1       4.910  31.163   1.664  0.00  0.00    -0.292 N 
ATOM      5 HH21 ARG A   1       5.279  31.774   2.420  0.00  0.00    +0.255 HD
ATOM      6 HH22 ARG A   1       3.994  30.685   1.782  0.00  0.00    +0.255 HD
ATOM      7  NH1 ARG A   1       5.116  30.241  -0.422  0.00  0.00    -0.292 N 
ATOM      8 HH11 ARG A   1       4.199  29.765  -0.300  0.00  0.00    +0.255 HD
ATOM      9 HH12 ARG A   1       5.647  30.126  -1.309  0.00  0.00    +0.255 HD
ENDROOT
BRANCH   1  10
ATOM     10  CD  ARG A   1       7.611  31.514  -0.795  0.00  0.00    +0.174 C 
BRANCH  10  11
ATOM     11  CG  ARG A   1       8.530  32.711  -0.866  0.00  0.00    +0.045 C 
BRANCH  11  12
ATOM     12  CB  ARG A   1       9.257  32.826  -2.166  0.00  0.00    +0.029 C 
BRANCH  12  13
ATOM     13  CA  ARG A   1      10.337  33.898  -2.116  0.00  0.00    +0.133 C 
BRANCH  13  14
ATOM     14  N   ARG A   1       9.744  35.255  -2.081  0.00  0.00    -0.239 NA
ATOM     15  H   ARG A   1       8.711  35.367  -2.129  0.00  0.00    +0.142 HD
ENDBRANCH  13  14
BRANCH  13  16
ATOM     16  C   ARG A   1      11.308  33.743  -3.279  0.00  0.00    +0.224 C 
ATOM     17  O   ARG A   1      10.945  33.990  -4.423  0.00  0.00    -0.287 OA
ENDBRANCH  13  16
ENDBRANCH  12  13
ENDBRANCH  11  12
ENDBRANCH  10  11
ENDBRANCH   1  10
TORSDOF 6
REMARK  Name = ../refined-set-2016/1hpo/1hpo_pocket.pdb
REMARK  201 active torsions:
REMARK  status: ('A' for Active; 'I' for Inactive)
REMARK    1  A    between atoms: _1  and  _3
REMARK    2  A    between atoms: _3  and  _4
REMARK    3  A    between atoms: _3  and  _6
REMARK    4  A    between atoms: _6  and  _7
REMARK    5  A    between atoms: _7  and  _8
REMARK    6  A    between atoms: _8  and  _9
REMARK    7  A    between atoms: _19  and  _20
REMARK    8  A    between atoms: _25  and  _27
REMARK    9  A    between atoms: _27  and  _28
REMARK   10  A    between atoms: _27  and  _30
REMARK   11  A    between atoms: _30  and  _31
REMARK   12  A    between atoms: _34  and  _36
REMARK   13  A    between atoms: _36  and  _37
REMARK   14  A    between atoms: _36  and  _39
REMARK   15  A    between atoms: _39  and  _40
REMARK   16  A    between atoms: _40  and  _41
REMARK   17  A    between atoms: _44  and  _46
REMARK   18  A    between atoms: _46  and  _47
REMARK   19  A    between atoms: _50  and  _52
REMARK   20  A    between atoms: _52  and  _53
REMARK   21  A    between atoms: _52  and  _55
REMARK   22  A    between atoms: _55  and  _56
REMARK   23  A    between atoms: _59  and  _61
REMARK   24  A    between atoms: _61  and  _62
REMARK   25  A    between atoms: _61  and  _64
REMARK   26  A    between atoms: _64  and  _65
REMARK   27  A    between atoms: _68  and  _70
REMARK   28  A    between atoms: _70  and  _71
REMARK   29  A    between atoms: _70  and  _73
REMARK   30  A    between atoms: _73  and  _74
REMARK   31  A    between atoms: _77  and  _79
REMARK   32  A    between atoms: _79  and  _80
REMARK   33  A    between atoms: _79  and  _82
REMARK   34  A    between atoms: _82  and  _83
REMARK   35  A    between atoms: _86  and  _88
REMARK   36  A    between atoms: _88  and  _89
REMARK   37  A    between atoms: _91  and  _93
REMARK   38  A    between atoms: _93  and  _94
REMARK   39  A    between atoms: _97  and  _99
REMARK   40  A    between atoms: _99  and  _100
REMARK   41  A    between atoms: _99  and  _102
REMARK   42  A    between atoms: _102  and  _103
REMARK   43  A    between atoms: _106  and  _108
REMARK   44  A    between atoms: _108  and  _109
REMARK   45  A    between atoms: _108  and  _111
REMARK   46  A    between atoms: _111  and  _112
REMARK   47  A    between atoms: _115  and  _117
REMARK   48  A    between atoms: _117  and  _118
REMARK   49  A    between atoms: _117  and  _120
REMARK   50  A    between atoms: _120  and  _121
REMARK   51  A    between atoms: _124  and  _126
REMARK   52  A    between atoms: _126  and  _127
REMARK   53  A    between atoms: _129  and  _131
REMARK   54  A    between atoms: _131  and  _132
REMARK   55  A    between atoms: _134  and  _136
REMARK   56  A    between atoms: _136  and  _137
REMARK   57  A    between atoms: _136  and  _139
REMARK   58  A    between atoms: _139  and  _140
REMARK   59  A    between atoms: _143  and  _145
REMARK   60  A    between atoms: _145  and  _146
REMARK   61  A    between atoms: _148  and  _150
REMARK   62  A    between atoms: _150  and  _151
REMARK   63  A    between atoms: _153  and  _155
REMARK   64  A    between atoms: _155  and  _156
REMARK   65  A    between atoms: _155  and  _158
REMARK   66  A    between atoms: _158  and  _159
REMARK   67  A    between atoms: _163  and  _164
REMARK   68  A    between atoms: _169  and  _171
REMARK   69  A    between atoms: _171  and  _172
REMARK   70  A    between atoms: _171  and  _174
REMARK   71  A    between atoms: _177  and  _179
REMARK   72  A    between atoms: _179  and  _180
REMARK   73  A    between atoms: _179  and  _182
REMARK   74  A    between atoms: _182  and  _183
REMARK   75  A    between atoms: _188  and  _190
REMARK   76  A    between atoms: _190  and  _191
REMARK   77  A    between atoms: _190  and  _193
REMARK   78  A    between atoms: _193  and  _194
REMARK   79  A    between atoms: _197  and  _199
REMARK   80  A    between atoms: _199  and  _200
REMARK   81  A    between atoms: _199  and  _202
REMARK   82  A    between atoms: _202  and  _203
REMARK   83  A    between atoms: _206  and  _208
REMARK   84  A    between atoms: _208  and  _209
REMARK   85  A    between atoms: _208  and  _211
REMARK   86  A    between atoms: _211  and  _212
REMARK   87  A    between atoms: _212  and  _213
REMARK   88  A    between atoms: _213  and  _214
REMARK   89  A    between atoms: _223  and  _225
REMARK   90  A    between atoms: _225  and  _226
REMARK   91  A    between atoms: _225  and  _228
REMARK   92  A    between atoms: _228  and  _229
REMARK   93  A    between atoms: _229  and  _230
REMARK   94  A    between atoms: _230  and  _231
REMARK   95  A    between atoms: _240  and  _242
REMARK   96  A    between atoms: _242  and  _243
REMARK   97  A    between atoms: _242  and  _245
REMARK   98  A    between atoms: _245  and  _246
REMARK   99  A    between atoms: _249  and  _251
REMARK  100  A    between atoms: _251  and  _252
REMARK  101  A    between atoms: _251  and  _254
REMARK  102  A    between atoms: _254  and  _255
REMARK  103  A    between atoms: _258  and  _260
REMARK  104  A    between atoms: _260  and  _261
REMARK  105  A    between atoms: _260  and  _263
REMARK  106  A    between atoms: _263  and  _264
REMARK  107  A    between atoms: _267  and  _269
REMARK  108  A    between atoms: _269  and  _270
REMARK  109  A    between atoms: _269  and  _272
REMARK  110  A    between atoms: _272  and  _273
REMARK  111  A    between atoms: _276  and  _278
REMARK  112  A    between atoms: _278  and  _279
REMARK  113  A    between atoms: _281  and  _283
REMARK  114  A    between atoms: _283  and  _284
REMARK  115  A    between atoms: _287  and  _289
REMARK  116  A    between atoms: _289  and  _290
REMARK  117  A    between atoms: _289  and  _292
REMARK  118  A    between atoms: _292  and  _293
REMARK  119  A    between atoms: _296  and  _298
REMARK  120  A    between atoms: _298  and  _299
REMARK  121  A    between atoms: _298  and  _301
REMARK  122  A    between atoms: _301  and  _302
REMARK  123  A    between atoms: _305  and  _307
REMARK  124  A    between atoms: _307  and  _308
REMARK  125  A    between atoms: _307  and  _310
REMARK  126  A    between atoms: _310  and  _311
REMARK  127  A    between atoms: _314  and  _316
REMARK  128  A    between atoms: _316  and  _317
REMARK  129  A    between atoms: _316  and  _319
REMARK  130  A    between atoms: _322  and  _324
REMARK  131  A    between atoms: _324  and  _325
REMARK  132  A    between atoms: _324  and  _327
REMARK  133  A    between atoms: _327  and  _328
REMARK  134  A    between atoms: _328  and  _329
REMARK  135  A    between atoms: _329  and  _330
REMARK  136  A    between atoms: _330  and  _331
REMARK  137  A    between atoms: _335  and  _337
REMARK  138  A    between atoms: _337  and  _338
REMARK  139  A    between atoms: _337  and  _340
REMARK  140  A    between atoms: _340  and  _341
REMARK  141  A    between atoms: _341  and  _342
REMARK  142  A    between atoms: _344  and  _346
REMARK  143  A    between atoms: _346  and  _347
REMARK  144  A    between atoms: _346  and  _349
REMARK  145  A    between atoms: _349  and  _350
REMARK  146  A    between atoms: _353  and  _355
REMARK  147  A    between atoms: _355  and  _356
REMARK  148  A    between atoms: _358  and  _360
REMARK  149  A    between atoms: _360  and  _361
REMARK  150  A    between atoms: _363  and  _365
REMARK  151  A    between atoms: _365  and  _366
REMARK  152  A    between atoms: _365  and  _368
REMARK  153  A    between atoms: _368  and  _369
REMARK  154  A    between atoms: _372  and  _374
REMARK  155  A    between atoms: _374  and  _375
REMARK  156  A    between atoms: _377  and  _379
REMARK  157  A    between atoms: _379  and  _380
REMARK  158  A    between atoms: _382  and  _384
REMARK  159  A    between atoms: _384  and  _385
REMARK  160  A    between atoms: _384  and  _387
REMARK  161  A    between atoms: _387  and  _388
REMARK  162  A    between atoms: _394  and  _396
REMARK  163  A    between atoms: _396  and  _397
REMARK  164  A    between atoms: _396  and  _399
REMARK  165  A    between atoms: _399  and  _400
REMARK  166  A    between atoms: _403  and  _405
REMARK  167  A    between atoms: _405  and  _406
REMARK  168  A    between atoms: _405  and  _408
REMARK  169  A    between atoms: _408  and  _409
REMARK  170  A    between atoms: _412  and  _414
REMARK  171  A    between atoms: _414  and  _415
REMARK  172  A    between atoms: _414  and  _417
REMARK  173  A    between atoms: _417  and  _418
REMARK  174  A    between atoms: _422  and  _423
REMARK  175  A    between atoms: _428  and  _430
REMARK  176  A    between atoms: _430  and  _431
REMARK  177  A    between atoms: _430  and  _433
REMARK  178  A    between atoms: _436  and  _438
REMARK  179  A    between atoms: _438  and  _439
REMARK  180  A    between atoms: _438  and  _441
REMARK  181  A    between atoms: _441  and  _442
REMARK  182  A    between atoms: _447  and  _449
REMARK  183  A    between atoms: _449  and  _450
REMARK  184  A    between atoms: _449  and  _452
REMARK  185  A    between atoms: _452  and  _453
REMARK  186  A    between atoms: _456  and  _458
REMARK  187  A    between atoms: _458  and  _459
REMARK  188  A    between atoms: _458  and  _461
REMARK  189  A    between atoms: _461  and  _462
REMARK  190  A    between atoms: _465  and  _467
REMARK  191  A    between atoms: _467  and  _468
REMARK  192  A    between atoms: _470  and  _472
REMARK  193  A    between atoms: _472  and  _473
REMARK  194  A    between atoms: _472  and  _475
REMARK  195  A    between atoms: _475  and  _476
REMARK  196  A    between atoms: _476  and  _477
REMARK  197  A    between atoms: _477  and  _478
REMARK  198  A    between atoms: _487  and  _489
REMARK  199  A    between atoms: _489  and  _490
REMARK  200  A    between atoms: _489  and  _492
REMARK  201  A    between atoms: _492  and  _493
REMARK                            x       y       z     vdW  Elec       q    Type
REMARK                         _______ _______ _______ _____ _____    ______ ____
ROOT
ATOM      1  C   GLY A   5      19.489  24.215   4.420  0.00  0.00    +0.243 C 
ATOM      2  O   GLY A   5      19.961  23.391   5.190  0.00  0.00    -0.273 OA
ATOM      3  N   ALA A   6      18.951  23.906   3.241  0.00  0.00    -0.297 N 
ATOM      4  H   ALA A   6      18.569  24.677   2.657  0.00  0.00    +0.150 HD
ENDROOT
BRANCH   3   5
ATOM      5  CA  ALA A   6      18.869  22.548   2.728  0.00  0.00    +0.149 C 
ATOM      6  CB  ALA A   6      17.809  22.469   1.667  0.00  0.00    +0.031 C 
BRANCH   5   7
ATOM      7  C   ALA A   6      20.199  22.064   2.157  0.00  0.00    +0.241 C 
ATOM      8  N   ASP A   7      20.701  20.924   2.644  0.00  0.00    -0.297 N 
ATOM      9  H   ASP A   7      20.178  20.423   3.390  0.00  0.00    +0.150 HD
ATOM     10  O   ALA A   6      20.745  22.704   1.259  0.00  0.00    -0.273 OA
BRANCH   8  11
ATOM     11  CA  ASP A   7      21.965  20.357   2.160  0.00  0.00    +0.160 C 
BRANCH  11  12
ATOM     12  C   ASP A   7      21.840  19.793   0.759  0.00  0.00    +0.241 C 
ATOM     13  N   ASP A   8      20.778  19.031   0.546  0.00  0.00    -0.297 N 
ATOM     14  H   ASP A   8      20.093  18.888   1.315  0.00  0.00    +0.150 HD
ATOM     15  O   ASP A   7      22.733  19.947  -0.073  0.00  0.00    -0.273 OA
BRANCH  13  16
ATOM     16  CA  ASP A   8      20.548  18.391  -0.737  0.00  0.00    +0.160 C 
BRANCH  16  17
ATOM     17  C   ASP A   8      19.342  18.973  -1.484  0.00  0.00    +0.241 C 
ATOM     18  O   ASP A   8      18.522  19.689  -0.914  0.00  0.00    -0.273 OA
ATOM     19  N   THR A   9      19.243  18.628  -2.761  0.00  0.00    -0.295 N 
ATOM     20  H   THR A   9      19.968  18.016  -3.186  0.00  0.00    +0.150 HD
BRANCH  19  21
ATOM     21  CA  THR A   9      18.140  19.093  -3.567  0.00  0.00    +0.176 C 
BRANCH  21  22
ATOM     22  C   THR A   9      17.000  18.111  -3.501  0.00  0.00    +0.243 C 
ATOM     23  N   VAL A  10      15.854  18.574  -3.030  0.00  0.00    -0.298 N 
ATOM     24  H   VAL A  10      15.793  19.564  -2.718  0.00  0.00    +0.150 HD
ATOM     25  O   THR A   9      17.140  16.953  -3.876  0.00  0.00    -0.273 OA
BRANCH  23  26
ATOM     26  CA  VAL A  10      14.674  17.720  -2.941  0.00  0.00    +0.137 C 
BRANCH  26  27
ATOM     27  CB  VAL A  10      14.048  17.719  -1.532  0.00  0.00    +0.026 C 
ATOM     28  CG2 VAL A  10      15.113  17.795  -0.440  0.00  0.00    +0.002 C 
ATOM     29  CG1 VAL A  10      13.192  16.496  -1.361  0.00  0.00    +0.002 C 
ENDBRANCH  26  27
BRANCH  26  30
ATOM     30  C   VAL A  10      13.638  18.218  -3.956  0.00  0.00    +0.227 C 
ATOM     31  O   VAL A  10      13.308  19.391  -3.995  0.00  0.00    -0.286 OA
ENDBRANCH  26  30
ENDBRANCH  23  26
ENDBRANCH  21  22
BRANCH  21  32
ATOM     32  CB  THR A   9      18.583  19.310  -5.004  0.00  0.00    +0.137 C 
ATOM     33  CG2 THR A   9      17.451  19.703  -5.879  0.00  0.00    +0.034 C 
BRANCH  32  34
ATOM     34  OG1 THR A   9      19.533  20.375  -5.010  0.00  0.00    -0.382 OA
ATOM     35  HG1 THR A   9      20.307  20.128  -4.444  0.00  0.00    +0.210 HD
ENDBRANCH  32  34
ENDBRANCH  21  32
ENDBRANCH  19  21
ENDBRANCH  16  17
BRANCH  16  36
ATOM     36  CB  ASP A   8      20.362  16.887  -0.514  0.00  0.00    +0.143 C 
BRANCH  36  37
ATOM     37  CG  ASP A   8      21.674  16.167  -0.150  0.00  0.00    +0.367 C 
ATOM     38  OD2 ASP A   8      21.888  15.814   1.068  0.00  0.00    -0.246 OA
ATOM     39  OD1 ASP A   8      22.502  15.909  -1.120  0.00  0.00    -0.246 OA
ENDBRANCH  36  37
ENDBRANCH  16  36
ENDBRANCH  13  16
ENDBRANCH  11  12
BRANCH  11  40
ATOM     40  CB  ASP A   7      22.455  19.217   3.059  0.00  0.00    +0.143 C 
BRANCH  40  41
ATOM     41  CG  ASP A   7      22.782  19.662   4.451  0.00  0.00    +0.367 C 
ATOM     42  OD2 ASP A   7      22.351  18.996   5.390  0.00  0.00    -0.246 OA
ATOM     43  OD1 ASP A   7      23.504  20.632   4.630  0.00  0.00    -0.246 OA
ENDBRANCH  40  41
ENDBRANCH  11  40
ENDBRANCH   8  11
ENDBRANCH   5   7
ENDBRANCH   3   5
BRANCH   1  44
ATOM     44  CA  GLY A   5      19.483  25.679   4.800  0.00  0.00    +0.176 C 
BRANCH  44  46
ATOM     45  C   THR A   4      20.576  26.774   2.975  0.00  0.00    +0.243 C 
ATOM     46  N   GLY A   5      19.450  26.514   3.618  0.00  0.00    -0.295 N 
ATOM     47  H   GLY A   5      18.549  26.906   3.278  0.00  0.00    +0.150 HD
ATOM     48  O   THR A   4      21.669  26.396   3.379  0.00  0.00    -0.273 OA
BRANCH  45  49
ATOM     49  CA  THR A   4      20.462  27.654   1.735  0.00  0.00    +0.176 C 
BRANCH  49  51
ATOM     50  C   ASP A   3      18.500  26.783   0.569  0.00  0.00    +0.241 C 
ATOM     51  N   THR A   4      19.100  27.773   1.217  0.00  0.00    -0.295 N 
ATOM     52  H   THR A   4      18.584  28.664   1.361  0.00  0.00    +0.150 HD
ATOM     53  O   ASP A   3      19.029  25.703   0.418  0.00  0.00    -0.273 OA
BRANCH  50  54
ATOM     54  CA  ASP A   3      17.082  27.040   0.077  0.00  0.00    +0.160 C 
BRANCH  54  57
ATOM     55  C   LEU A   2      16.611  28.307  -1.962  0.00  0.00    +0.241 C 
ATOM     56  O   LEU A   2      16.175  29.256  -1.310  0.00  0.00    -0.273 OA
ATOM     57  N   ASP A   3      17.056  27.196  -1.376  0.00  0.00    -0.297 N 
ATOM     58  H   ASP A   3      17.396  26.414  -1.972  0.00  0.00    +0.150 HD
BRANCH  55  59
ATOM     59  CA  LEU A   2      16.581  28.343  -3.503  0.00  0.00    +0.149 C 
BRANCH  59  62
ATOM     60  C   LEU A   1      14.433  27.326  -3.915  0.00  0.00    +0.238 C 
ATOM     61  O   LEU A   1      14.902  26.215  -3.813  0.00  0.00    -0.274 OA
ATOM     62  N   LEU A   2      15.178  28.419  -3.840  0.00  0.00    -0.297 N 
ATOM     63  H   LEU A   2      14.746  29.346  -4.027  0.00  0.00    +0.150 HD
BRANCH  60  64
ATOM     64  CA  LEU A   1      12.964  27.493  -4.218  0.00  0.00    +0.145 C 
BRANCH  64  65
ATOM     65  N   LEU A   1      12.565  26.502  -5.204  0.00  0.00    -0.238 NA
ATOM     66  H   LEU A   1      12.409  25.521  -4.897  0.00  0.00    +0.142 HD
ENDBRANCH  64  65
BRANCH  64  67
ATOM     67  CB  LEU A   1      12.171  27.274  -2.940  0.00  0.00    +0.026 C 
BRANCH  67  68
ATOM     68  CG  LEU A   1      12.130  28.358  -1.876  0.00  0.00    +0.002 C 
ATOM     69  CD2 LEU A   1      11.408  27.810  -0.668  0.00  0.00    +0.000 C 
ATOM     70  CD1 LEU A   1      11.380  29.581  -2.411  0.00  0.00    +0.000 C 
ENDBRANCH  67  68
ENDBRANCH  64  67
ENDBRANCH  60  64
ENDBRANCH  59  62
BRANCH  59  71
ATOM     71  CB  LEU A   2      17.293  29.573  -4.067  0.00  0.00    +0.029 C 
BRANCH  71  72
ATOM     72  CG  LEU A   2      17.229  29.811  -5.579  0.00  0.00    +0.002 C 
ATOM     73  CD2 LEU A   2      18.049  30.997  -5.945  0.00  0.00    +0.000 C 
ATOM     74  CD1 LEU A   2      17.749  28.619  -6.288  0.00  0.00    +0.000 C 
ENDBRANCH  71  72
ENDBRANCH  59  71
ENDBRANCH  55  59
ENDBRANCH  54  57
BRANCH  54  75
ATOM     75  CB  ASP A   3      16.156  25.875   0.469  0.00  0.00    +0.143 C 
BRANCH  75  76
ATOM     76  CG  ASP A   3      15.805  25.830   1.953  0.00  0.00    +0.367 C 
ATOM     77  OD2 ASP A   3      16.582  26.282   2.804  0.00  0.00    -0.246 OA
ATOM     78  OD1 ASP A   3      14.729  25.323   2.275  0.00  0.00    -0.246 OA
ENDBRANCH  75  76
ENDBRANCH  54  75
ENDBRANCH  50  54
ENDBRANCH  49  51
BRANCH  49  79
ATOM     79  CB  THR A   4      21.013  29.035   2.050  0.00  0.00    +0.137 C 
ATOM     80  CG2 THR A   4      21.060  29.852   0.794  0.00  0.00    +0.034 C 
BRANCH  79  81
ATOM     81  OG1 THR A   4      20.133  29.688   2.976  0.00  0.00    -0.382 OA
ATOM     82  HG1 THR A   4      20.075  29.153   3.807  0.00  0.00    +0.210 HD
ENDBRANCH  79  81
ENDBRANCH  49  79
ENDBRANCH  45  49
ENDBRANCH  44  46
ENDBRANCH   1  44
TORSDOF 35
REMARK  Name = ../refined-set-2016/1hpo/1hpo_pocket.pdb
REMARK  201 active torsions:
REMARK  status: ('A' for Active; 'I' for Inactive)
REMARK    1  A    between atoms: _1  and  _3
REMARK    2  A    between atoms: _3  and  _4
REMARK    3  A    between atoms: _3  and  _6
REMARK    4  A    between atoms: _6  and  _7
REMARK    5  A    between atoms: _7  and  _8
REMARK    6  A    between atoms: _8  and  _9
REMARK    7  A    between atoms: _19  and  _20
REMARK    8  A    between atoms: _25  and  _27
REMARK    9  A    between atoms: _27  and  _28
REMARK   10  A    between atoms: _27  and  _30
REMARK   11  A    between atoms: _30  and  _31
REMARK   12  A    between atoms: _34  and  _36
REMARK   13  A    between atoms: _36  and  _37
REMARK   14  A    between atoms: _36  and  _39
REMARK   15  A    between atoms: _39  and  _40
REMARK   16  A    between atoms: _40  and  _41
REMARK   17  A    between atoms: _44  and  _46
REMARK   18  A    between atoms: _46  and  _47
REMARK   19  A    between atoms: _50  and  _52
REMARK   20  A    between atoms: _52  and  _53
REMARK   21  A    between atoms: _52  and  _55
REMARK   22  A    between atoms: _55  and  _56
REMARK   23  A    between atoms: _59  and  _61
REMARK   24  A    between atoms: _61  and  _62
REMARK   25  A    between atoms: _61  and  _64
REMARK   26  A    between atoms: _64  and  _65
REMARK   27  A    between atoms: _68  and  _70
REMARK   28  A    between atoms: _70  and  _71
REMARK   29  A    between atoms: _70  and  _73
REMARK   30  A    between atoms: _73  and  _74
REMARK   31  A    between atoms: _77  and  _79
REMARK   32  A    between atoms: _79  and  _80
REMARK   33  A    between atoms: _79  and  _82
REMARK   34  A    between atoms: _82  and  _83
REMARK   35  A    between atoms: _86  and  _88
REMARK   36  A    between atoms: _88  and  _89
REMARK   37  A    between atoms: _91  and  _93
REMARK   38  A    between atoms: _93  and  _94
REMARK   39  A    between atoms: _97  and  _99
REMARK   40  A    between atoms: _99  and  _100
REMARK   41  A    between atoms: _99  and  _102
REMARK   42  A    between atoms: _102  and  _103
REMARK   43  A    between atoms: _106  and  _108
REMARK   44  A    between atoms: _108  and  _109
REMARK   45  A    between atoms: _108  and  _111
REMARK   46  A    between atoms: _111  and  _112
REMARK   47  A    between atoms: _115  and  _117
REMARK   48  A    between atoms: _117  and  _118
REMARK   49  A    between atoms: _117  and  _120
REMARK   50  A    between atoms: _120  and  _121
REMARK   51  A    between atoms: _124  and  _126
REMARK   52  A    between atoms: _126  and  _127
REMARK   53  A    between atoms: _129  and  _131
REMARK   54  A    between atoms: _131  and  _132
REMARK   55  A    between atoms: _134  and  _136
REMARK   56  A    between atoms: _136  and  _137
REMARK   57  A    between atoms: _136  and  _139
REMARK   58  A    between atoms: _139  and  _140
REMARK   59  A    between atoms: _143  and  _145
REMARK   60  A    between atoms: _145  and  _146
REMARK   61  A    between atoms: _148  and  _150
REMARK   62  A    between atoms: _150  and  _151
REMARK   63  A    between atoms: _153  and  _155
REMARK   64  A    between atoms: _155  and  _156
REMARK   65  A    between atoms: _155  and  _158
REMARK   66  A    between atoms: _158  and  _159
REMARK   67  A    between atoms: _163  and  _164
REMARK   68  A    between atoms: _169  and  _171
REMARK   69  A    between atoms: _171  and  _172
REMARK   70  A    between atoms: _171  and  _174
REMARK   71  A    between atoms: _177  and  _179
REMARK   72  A    between atoms: _179  and  _180
REMARK   73  A    between atoms: _179  and  _182
REMARK   74  A    between atoms: _182  and  _183
REMARK   75  A    between atoms: _188  and  _190
REMARK   76  A    between atoms: _190  and  _191
REMARK   77  A    between atoms: _190  and  _193
REMARK   78  A    between atoms: _193  and  _194
REMARK   79  A    between atoms: _197  and  _199
REMARK   80  A    between atoms: _199  and  _200
REMARK   81  A    between atoms: _199  and  _202
REMARK   82  A    between atoms: _202  and  _203
REMARK   83  A    between atoms: _206  and  _208
REMARK   84  A    between atoms: _208  and  _209
REMARK   85  A    between atoms: _208  and  _211
REMARK   86  A    between atoms: _211  and  _212
REMARK   87  A    between atoms: _212  and  _213
REMARK   88  A    between atoms: _213  and  _214
REMARK   89  A    between atoms: _223  and  _225
REMARK   90  A    between atoms: _225  and  _226
REMARK   91  A    between atoms: _225  and  _228
REMARK   92  A    between atoms: _228  and  _229
REMARK   93  A    between atoms: _229  and  _230
REMARK   94  A    between atoms: _230  and  _231
REMARK   95  A    between atoms: _240  and  _242
REMARK   96  A    between atoms: _242  and  _243
REMARK   97  A    between atoms: _242  and  _245
REMARK   98  A    between atoms: _245  and  _246
REMARK   99  A    between atoms: _249  and  _251
REMARK  100  A    between atoms: _251  and  _252
REMARK  101  A    between atoms: _251  and  _254
REMARK  102  A    between atoms: _254  and  _255
REMARK  103  A    between atoms: _258  and  _260
REMARK  104  A    between atoms: _260  and  _261
REMARK  105  A    between atoms: _260  and  _263
REMARK  106  A    between atoms: _263  and  _264
REMARK  107  A    between atoms: _267  and  _269
REMARK  108  A    between atoms: _269  and  _270
REMARK  109  A    between atoms: _269  and  _272
REMARK  110  A    between atoms: _272  and  _273
REMARK  111  A    between atoms: _276  and  _278
REMARK  112  A    between atoms: _278  and  _279
REMARK  113  A    between atoms: _281  and  _283
REMARK  114  A    between atoms: _283  and  _284
REMARK  115  A    between atoms: _287  and  _289
REMARK  116  A    between atoms: _289  and  _290
REMARK  117  A    between atoms: _289  and  _292
REMARK  118  A    between atoms: _292  and  _293
REMARK  119  A    between atoms: _296  and  _298
REMARK  120  A    between atoms: _298  and  _299
REMARK  121  A    between atoms: _298  and  _301
REMARK  122  A    between atoms: _301  and  _302
REMARK  123  A    between atoms: _305  and  _307
REMARK  124  A    between atoms: _307  and  _308
REMARK  125  A    between atoms: _307  and  _310
REMARK  126  A    between atoms: _310  and  _311
REMARK  127  A    between atoms: _314  and  _316
REMARK  128  A    between atoms: _316  and  _317
REMARK  129  A    between atoms: _316  and  _319
REMARK  130  A    between atoms: _322  and  _324
REMARK  131  A    between atoms: _324  and  _325
REMARK  132  A    between atoms: _324  and  _327
REMARK  133  A    between atoms: _327  and  _328
REMARK  134  A    between atoms: _328  and  _329
REMARK  135  A    between atoms: _329  and  _330
REMARK  136  A    between atoms: _330  and  _331
REMARK  137  A    between atoms: _335  and  _337
REMARK  138  A    between atoms: _337  and  _338
REMARK  139  A    between atoms: _337  and  _340
REMARK  140  A    between atoms: _340  and  _341
REMARK  141  A    between atoms: _341  and  _342
REMARK  142  A    between atoms: _344  and  _346
REMARK  143  A    between atoms: _346  and  _347
REMARK  144  A    between atoms: _346  and  _349
REMARK  145  A    between atoms: _349  and  _350
REMARK  146  A    between atoms: _353  and  _355
REMARK  147  A    between atoms: _355  and  _356
REMARK  148  A    between atoms: _358  and  _360
REMARK  149  A    between atoms: _360  and  _361
REMARK  150  A    between atoms: _363  and  _365
REMARK  151  A    between atoms: _365  and  _366
REMARK  152  A    between atoms: _365  and  _368
REMARK  153  A    between atoms: _368  and  _369
REMARK  154  A    between atoms: _372  and  _374
REMARK  155  A    between atoms: _374  and  _375
REMARK  156  A    between atoms: _377  and  _379
REMARK  157  A    between atoms: _379  and  _380
REMARK  158  A    between atoms: _382  and  _384
REMARK  159  A    between atoms: _384  and  _385
REMARK  160  A    between atoms: _384  and  _387
REMARK  161  A    between atoms: _387  and  _388
REMARK  162  A    between atoms: _394  and  _396
REMARK  163  A    between atoms: _396  and  _397
REMARK  164  A    between atoms: _396  and  _399
REMARK  165  A    between atoms: _399  and  _400
REMARK  166  A    between atoms: _403  and  _405
REMARK  167  A    between atoms: _405  and  _406
REMARK  168  A    between atoms: _405  and  _408
REMARK  169  A    between atoms: _408  and  _409
REMARK  170  A    between atoms: _412  and  _414
REMARK  171  A    between atoms: _414  and  _415
REMARK  172  A    between atoms: _414  and  _417
REMARK  173  A    between atoms: _417  and  _418
REMARK  174  A    between atoms: _422  and  _423
REMARK  175  A    between atoms: _428  and  _430
REMARK  176  A    between atoms: _430  and  _431
REMARK  177  A    between atoms: _430  and  _433
REMARK  178  A    between atoms: _436  and  _438
REMARK  179  A    between atoms: _438  and  _439
REMARK  180  A    between atoms: _438  and  _441
REMARK  181  A    between atoms: _441  and  _442
REMARK  182  A    between atoms: _447  and  _449
REMARK  183  A    between atoms: _449  and  _450
REMARK  184  A    between atoms: _449  and  _452
REMARK  185  A    between atoms: _452  and  _453
REMARK  186  A    between atoms: _456  and  _458
REMARK  187  A    between atoms: _458  and  _459
REMARK  188  A    between atoms: _458  and  _461
REMARK  189  A    between atoms: _461  and  _462
REMARK  190  A    between atoms: _465  and  _467
REMARK  191  A    between atoms: _467  and  _468
REMARK  192  A    between atoms: _470  and  _472
REMARK  193  A    between atoms: _472  and  _473
REMARK  194  A    between atoms: _472  and  _475
REMARK  195  A    between atoms: _475  and  _476
REMARK  196  A    between atoms: _476  and  _477
REMARK  197  A    between atoms: _477  and  _478
REMARK  198  A    between atoms: _487  and  _489
REMARK  199  A    between atoms: _489  and  _490
REMARK  200  A    between atoms: _489  and  _492
REMARK  201  A    between atoms: _492  and  _493
REMARK                            x       y       z     vdW  Elec       q    Type
REMARK                         _______ _______ _______ _____ _____    ______ ____
ROOT
ATOM      1  C   GLY A   5      12.280  18.795   9.272  0.00  0.00    +0.243 C 
ATOM      2  O   GLY A   5      12.478  18.183  10.341  0.00  0.00    -0.273 OA
ATOM      3  N   ILE A   6      11.630  19.968   9.239  0.00  0.00    -0.297 N 
ATOM      4  H   ILE A   6      11.442  20.442   8.333  0.00  0.00    +0.150 HD
ENDROOT
BRANCH   3   5
ATOM      5  CA  ILE A   6      11.189  20.571  10.502  0.00  0.00    +0.149 C 
BRANCH   5   6
ATOM      6  C   ILE A   6      10.153  19.710  11.179  0.00  0.00    +0.241 C 
ATOM      7  O   ILE A   6      10.260  19.438  12.375  0.00  0.00    -0.273 OA
ATOM      8  N   GLY A   7       9.172  19.257  10.401  0.00  0.00    -0.295 N 
ATOM      9  H   GLY A   7       9.178  19.483   9.386  0.00  0.00    +0.150 HD
BRANCH   8  10
ATOM     10  CA  GLY A   7       8.094  18.453  10.947  0.00  0.00    +0.176 C 
BRANCH  10  11
ATOM     11  C   GLY A   7       8.344  16.960  11.075  0.00  0.00    +0.243 C 
ATOM     12  O   GLY A   7       7.422  16.215  11.393  0.00  0.00    -0.273 OA
ATOM     13  N   GLY A   8       9.569  16.516  10.846  0.00  0.00    -0.295 N 
ATOM     14  H   GLY A   8      10.327  17.178  10.584  0.00  0.00    +0.150 HD
BRANCH  13  15
ATOM     15  CA  GLY A   8       9.844  15.107  10.963  0.00  0.00    +0.176 C 
BRANCH  15  16
ATOM     16  C   GLY A   8      10.709  14.640   9.820  0.00  0.00    +0.243 C 
ATOM     17  N   PHE A   9      10.737  13.333   9.573  0.00  0.00    -0.297 N 
ATOM     18  H   PHE A   9      10.169  12.697  10.168  0.00  0.00    +0.150 HD
ATOM     19  O   GLY A   8      11.362  15.460   9.188  0.00  0.00    -0.273 OA
BRANCH  17  20
ATOM     20  CA  PHE A   9      11.540  12.760   8.492  0.00  0.00    +0.153 C 
BRANCH  20  21
ATOM     21  C   PHE A   9      10.651  12.259   7.385  0.00  0.00    +0.241 C 
ATOM     22  O   PHE A   9       9.469  12.006   7.617  0.00  0.00    -0.273 OA
ATOM     23  N   ILE A  10      11.210  12.137   6.182  0.00  0.00    -0.298 N 
ATOM     24  H   ILE A  10      12.196  12.438   6.048  0.00  0.00    +0.150 HD
BRANCH  23  25
ATOM     25  CA  ILE A  10      10.470  11.590   5.046  0.00  0.00    +0.137 C 
BRANCH  25  26
ATOM     26  C   ILE A  10      11.458  10.701   4.318  0.00  0.00    +0.227 C 
ATOM     27  O   ILE A  10      12.663  10.865   4.480  0.00  0.00    -0.286 OA
ENDBRANCH  25  26
BRANCH  25  28
ATOM     28  CB  ILE A  10       9.979  12.634   4.027  0.00  0.00    +0.026 C 
ATOM     29  CG2 ILE A  10       8.875  13.459   4.602  0.00  0.00    +0.002 C 
BRANCH  28  30
ATOM     30  CG1 ILE A  10      11.155  13.460   3.531  0.00  0.00    +0.002 C 
ATOM     31  CD1 ILE A  10      10.823  14.331   2.374  0.00  0.00    +0.000 C 
ENDBRANCH  28  30
ENDBRANCH  25  28
ENDBRANCH  23  25
ENDBRANCH  20  21
BRANCH  20  32
ATOM     32  CB  PHE A   9      12.355  11.565   9.008  0.00  0.00    +0.055 C 
BRANCH  32  33
ATOM     33  CG  PHE A   9      13.383  11.923  10.053  0.00  0.00    -0.020 A 
ATOM     34  CD2 PHE A   9      13.038  12.018  11.390  0.00  0.00    -0.004 A 
ATOM     35  CE2 PHE A   9      14.011  12.342  12.355  0.00  0.00    -0.000 A 
ATOM     36  CZ  PHE A   9      15.341  12.581  11.974  0.00  0.00    -0.000 A 
ATOM     37  CE1 PHE A   9      15.691  12.491  10.648  0.00  0.00    -0.000 A 
ATOM     38  CD1 PHE A   9      14.707  12.164   9.691  0.00  0.00    -0.004 A 
ENDBRANCH  32  33
ENDBRANCH  20  32
ENDBRANCH  17  20
ENDBRANCH  15  16
ENDBRANCH  13  15
ENDBRANCH  10  11
ENDBRANCH   8  10
ENDBRANCH   5   6
BRANCH   5  39
ATOM     39  CB  ILE A   6      10.554  21.976  10.385  0.00  0.00    +0.027 C 
ATOM     40  CG2 ILE A   6      11.622  23.068  10.348  0.00  0.00    +0.002 C 
BRANCH  39  41
ATOM     41  CG1 ILE A   6       9.573  22.009   9.221  0.00  0.00    +0.002 C 
ATOM     42  CD1 ILE A   6       8.676  23.235   9.225  0.00  0.00    +0.000 C 
ENDBRANCH  39  41
ENDBRANCH   5  39
ENDBRANCH   3   5
BRANCH   1  43
ATOM     43  CA  GLY A   5      12.748  18.160   7.953  0.00  0.00    +0.176 C 
BRANCH  43  45
ATOM     44  C   GLY A   4      14.668  16.644   8.131  0.00  0.00    +0.243 C 
ATOM     45  N   GLY A   5      13.352  16.845   8.183  0.00  0.00    -0.295 N 
ATOM     46  H   GLY A   5      12.730  16.039   8.395  0.00  0.00    +0.150 HD
ATOM     47  O   GLY A   4      15.480  17.518   7.841  0.00  0.00    -0.273 OA
BRANCH  44  48
ATOM     48  CA  GLY A   4      15.149  15.239   8.429  0.00  0.00    +0.176 C 
BRANCH  48  50
ATOM     49  C   ILE A   3      15.238  13.977   6.394  0.00  0.00    +0.241 C 
ATOM     50  N   GLY A   4      15.891  14.625   7.348  0.00  0.00    -0.295 N 
ATOM     51  H   GLY A   4      16.928  14.692   7.320  0.00  0.00    +0.150 HD
ATOM     52  O   ILE A   3      14.002  13.864   6.382  0.00  0.00    -0.273 OA
BRANCH  49  53
ATOM     53  CA  ILE A   3      16.071  13.373   5.292  0.00  0.00    +0.149 C 
BRANCH  53  56
ATOM     54  C   MET A   2      16.286  10.971   5.136  0.00  0.00    +0.241 C 
ATOM     55  O   MET A   2      17.475  11.036   5.390  0.00  0.00    -0.273 OA
ATOM     56  N   ILE A   3      15.530  12.048   5.003  0.00  0.00    -0.297 N 
ATOM     57  H   ILE A   3      14.543  11.950   4.690  0.00  0.00    +0.150 HD
BRANCH  54  58
ATOM     58  CA  MET A   2      15.671   9.636   4.843  0.00  0.00    +0.149 C 
BRANCH  58  60
ATOM     59  C   LYS A   1      16.205   8.549   2.744  0.00  0.00    +0.238 C 
ATOM     60  N   MET A   2      16.592   8.999   3.927  0.00  0.00    -0.297 N 
ATOM     61  H   MET A   2      17.588   8.891   4.206  0.00  0.00    +0.150 HD
ATOM     62  O   LYS A   1      15.040   8.571   2.379  0.00  0.00    -0.274 OA
BRANCH  59  63
ATOM     63  CA  LYS A   1      17.293   7.942   1.871  0.00  0.00    +0.145 C 
BRANCH  63  64
ATOM     64  N   LYS A   1      16.774   6.950   0.947  0.00  0.00    -0.238 NA
ATOM     65  H   LYS A   1      15.791   7.017   0.615  0.00  0.00    +0.142 HD
ENDBRANCH  63  64
BRANCH  63  66
ATOM     66  CB  LYS A   1      18.052   9.047   1.127  0.00  0.00    +0.026 C 
BRANCH  66  67
ATOM     67  CG  LYS A   1      19.147   9.654   1.979  0.00  0.00    -0.000 C 
BRANCH  67  68
ATOM     68  CD  LYS A   1      19.828  10.813   1.322  0.00  0.00    -0.024 C 
BRANCH  68  69
ATOM     69  CE  LYS A   1      20.965  11.337   2.204  0.00  0.00    -0.086 C 
BRANCH  69  70
ATOM     70  NZ  LYS A   1      21.504  12.668   1.739  0.00  0.00    +0.380 N 
ATOM     71  HZ1 LYS A   1      22.270  12.971   2.374  0.00  0.00    -0.089 HD
ATOM     72  HZ2 LYS A   1      20.740  13.374   1.753  0.00  0.00    -0.089 HD
ATOM     73  HZ3 LYS A   1      21.872  12.573   0.771  0.00  0.00    -0.089 HD
ENDBRANCH  69  70
ENDBRANCH  68  69
ENDBRANCH  67  68
ENDBRANCH  66  67
ENDBRANCH  63  66
ENDBRANCH  59  63
ENDBRANCH  58  60
BRANCH  58  74
ATOM     74  CB  MET A   2      15.582   8.847   6.128  0.00  0.00    +0.041 C 
BRANCH  74  75
ATOM     75  CG  MET A   2      14.776   7.570   6.004  0.00  0.00    +0.060 C 
BRANCH  75  76
ATOM     76  SD  MET A   2      13.720   7.366   7.488  0.00  0.00    -0.139 S 
ATOM     77  CE  MET A   2      12.156   8.032   6.901  0.00  0.00    +0.069 C 
ENDBRANCH  75  76
ENDBRANCH  74  75
ENDBRANCH  58  74
ENDBRANCH  54  58
ENDBRANCH  53  56
BRANCH  53  78
ATOM     78  CB  ILE A   3      15.977  14.317   4.095  0.00  0.00    +0.027 C 
ATOM     79  CG2 ILE A   3      17.003  13.951   3.042  0.00  0.00    +0.002 C 
BRANCH  78  80
ATOM     80  CG1 ILE A   3      14.552  14.336   3.556  0.00  0.00    +0.002 C 
ATOM     81  CD1 ILE A   3      14.338  15.317   2.440  0.00  0.00    +0.000 C 
ENDBRANCH  78  80
ENDBRANCH  53  78
ENDBRANCH  49  53
ENDBRANCH  48  50
ENDBRANCH  44  48
ENDBRANCH  43  45
ENDBRANCH   1  43
TORSDOF 36
REMARK  Name = ../refined-set-2016/1hpo/1hpo_pocket.pdb
REMARK  201 active torsions:
REMARK  status: ('A' for Active; 'I' for Inactive)
REMARK    1  A    between atoms: _1  and  _3
REMARK    2  A    between atoms: _3  and  _4
REMARK    3  A    between atoms: _3  and  _6
REMARK    4  A    between atoms: _6  and  _7
REMARK    5  A    between atoms: _7  and  _8
REMARK    6  A    between atoms: _8  and  _9
REMARK    7  A    between atoms: _19  and  _20
REMARK    8  A    between atoms: _25  and  _27
REMARK    9  A    between atoms: _27  and  _28
REMARK   10  A    between atoms: _27  and  _30
REMARK   11  A    between atoms: _30  and  _31
REMARK   12  A    between atoms: _34  and  _36
REMARK   13  A    between atoms: _36  and  _37
REMARK   14  A    between atoms: _36  and  _39
REMARK   15  A    between atoms: _39  and  _40
REMARK   16  A    between atoms: _40  and  _41
REMARK   17  A    between atoms: _44  and  _46
REMARK   18  A    between atoms: _46  and  _47
REMARK   19  A    between atoms: _50  and  _52
REMARK   20  A    between atoms: _52  and  _53
REMARK   21  A    between atoms: _52  and  _55
REMARK   22  A    between atoms: _55  and  _56
REMARK   23  A    between atoms: _59  and  _61
REMARK   24  A    between atoms: _61  and  _62
REMARK   25  A    between atoms: _61  and  _64
REMARK   26  A    between atoms: _64  and  _65
REMARK   27  A    between atoms: _68  and  _70
REMARK   28  A    between atoms: _70  and  _71
REMARK   29  A    between atoms: _70  and  _73
REMARK   30  A    between atoms: _73  and  _74
REMARK   31  A    between atoms: _77  and  _79
REMARK   32  A    between atoms: _79  and  _80
REMARK   33  A    between atoms: _79  and  _82
REMARK   34  A    between atoms: _82  and  _83
REMARK   35  A    between atoms: _86  and  _88
REMARK   36  A    between atoms: _88  and  _89
REMARK   37  A    between atoms: _91  and  _93
REMARK   38  A    between atoms: _93  and  _94
REMARK   39  A    between atoms: _97  and  _99
REMARK   40  A    between atoms: _99  and  _100
REMARK   41  A    between atoms: _99  and  _102
REMARK   42  A    between atoms: _102  and  _103
REMARK   43  A    between atoms: _106  and  _108
REMARK   44  A    between atoms: _108  and  _109
REMARK   45  A    between atoms: _108  and  _111
REMARK   46  A    between atoms: _111  and  _112
REMARK   47  A    between atoms: _115  and  _117
REMARK   48  A    between atoms: _117  and  _118
REMARK   49  A    between atoms: _117  and  _120
REMARK   50  A    between atoms: _120  and  _121
REMARK   51  A    between atoms: _124  and  _126
REMARK   52  A    between atoms: _126  and  _127
REMARK   53  A    between atoms: _129  and  _131
REMARK   54  A    between atoms: _131  and  _132
REMARK   55  A    between atoms: _134  and  _136
REMARK   56  A    between atoms: _136  and  _137
REMARK   57  A    between atoms: _136  and  _139
REMARK   58  A    between atoms: _139  and  _140
REMARK   59  A    between atoms: _143  and  _145
REMARK   60  A    between atoms: _145  and  _146
REMARK   61  A    between atoms: _148  and  _150
REMARK   62  A    between atoms: _150  and  _151
REMARK   63  A    between atoms: _153  and  _155
REMARK   64  A    between atoms: _155  and  _156
REMARK   65  A    between atoms: _155  and  _158
REMARK   66  A    between atoms: _158  and  _159
REMARK   67  A    between atoms: _163  and  _164
REMARK   68  A    between atoms: _169  and  _171
REMARK   69  A    between atoms: _171  and  _172
REMARK   70  A    between atoms: _171  and  _174
REMARK   71  A    between atoms: _177  and  _179
REMARK   72  A    between atoms: _179  and  _180
REMARK   73  A    between atoms: _179  and  _182
REMARK   74  A    between atoms: _182  and  _183
REMARK   75  A    between atoms: _188  and  _190
REMARK   76  A    between atoms: _190  and  _191
REMARK   77  A    between atoms: _190  and  _193
REMARK   78  A    between atoms: _193  and  _194
REMARK   79  A    between atoms: _197  and  _199
REMARK   80  A    between atoms: _199  and  _200
REMARK   81  A    between atoms: _199  and  _202
REMARK   82  A    between atoms: _202  and  _203
REMARK   83  A    between atoms: _206  and  _208
REMARK   84  A    between atoms: _208  and  _209
REMARK   85  A    between atoms: _208  and  _211
REMARK   86  A    between atoms: _211  and  _212
REMARK   87  A    between atoms: _212  and  _213
REMARK   88  A    between atoms: _213  and  _214
REMARK   89  A    between atoms: _223  and  _225
REMARK   90  A    between atoms: _225  and  _226
REMARK   91  A    between atoms: _225  and  _228
REMARK   92  A    between atoms: _228  and  _229
REMARK   93  A    between atoms: _229  and  _230
REMARK   94  A    between atoms: _230  and  _231
REMARK   95  A    between atoms: _240  and  _242
REMARK   96  A    between atoms: _242  and  _243
REMARK   97  A    between atoms: _242  and  _245
REMARK   98  A    between atoms: _245  and  _246
REMARK   99  A    between atoms: _249  and  _251
REMARK  100  A    between atoms: _251  and  _252
REMARK  101  A    between atoms: _251  and  _254
REMARK  102  A    between atoms: _254  and  _255
REMARK  103  A    between atoms: _258  and  _260
REMARK  104  A    between atoms: _260  and  _261
REMARK  105  A    between atoms: _260  and  _263
REMARK  106  A    between atoms: _263  and  _264
REMARK  107  A    between atoms: _267  and  _269
REMARK  108  A    between atoms: _269  and  _270
REMARK  109  A    between atoms: _269  and  _272
REMARK  110  A    between atoms: _272  and  _273
REMARK  111  A    between atoms: _276  and  _278
REMARK  112  A    between atoms: _278  and  _279
REMARK  113  A    between atoms: _281  and  _283
REMARK  114  A    between atoms: _283  and  _284
REMARK  115  A    between atoms: _287  and  _289
REMARK  116  A    between atoms: _289  and  _290
REMARK  117  A    between atoms: _289  and  _292
REMARK  118  A    between atoms: _292  and  _293
REMARK  119  A    between atoms: _296  and  _298
REMARK  120  A    between atoms: _298  and  _299
REMARK  121  A    between atoms: _298  and  _301
REMARK  122  A    between atoms: _301  and  _302
REMARK  123  A    between atoms: _305  and  _307
REMARK  124  A    between atoms: _307  and  _308
REMARK  125  A    between atoms: _307  and  _310
REMARK  126  A    between atoms: _310  and  _311
REMARK  127  A    between atoms: _314  and  _316
REMARK  128  A    between atoms: _316  and  _317
REMARK  129  A    between atoms: _316  and  _319
REMARK  130  A    between atoms: _322  and  _324
REMARK  131  A    between atoms: _324  and  _325
REMARK  132  A    between atoms: _324  and  _327
REMARK  133  A    between atoms: _327  and  _328
REMARK  134  A    between atoms: _328  and  _329
REMARK  135  A    between atoms: _329  and  _330
REMARK  136  A    between atoms: _330  and  _331
REMARK  137  A    between atoms: _335  and  _337
REMARK  138  A    between atoms: _337  and  _338
REMARK  139  A    between atoms: _337  and  _340
REMARK  140  A    between atoms: _340  and  _341
REMARK  141  A    between atoms: _341  and  _342
REMARK  142  A    between atoms: _344  and  _346
REMARK  143  A    between atoms: _346  and  _347
REMARK  144  A    between atoms: _346  and  _349
REMARK  145  A    between atoms: _349  and  _350
REMARK  146  A    between atoms: _353  and  _355
REMARK  147  A    between atoms: _355  and  _356
REMARK  148  A    between atoms: _358  and  _360
REMARK  149  A    between atoms: _360  and  _361
REMARK  150  A    between atoms: _363  and  _365
REMARK  151  A    between atoms: _365  and  _366
REMARK  152  A    between atoms: _365  and  _368
REMARK  153  A    between atoms: _368  and  _369
REMARK  154  A    between atoms: _372  and  _374
REMARK  155  A    between atoms: _374  and  _375
REMARK  156  A    between atoms: _377  and  _379
REMARK  157  A    between atoms: _379  and  _380
REMARK  158  A    between atoms: _382  and  _384
REMARK  159  A    between atoms: _384  and  _385
REMARK  160  A    between atoms: _384  and  _387
REMARK  161  A    between atoms: _387  and  _388
REMARK  162  A    between atoms: _394  and  _396
REMARK  163  A    between atoms: _396  and  _397
REMARK  164  A    between atoms: _396  and  _399
REMARK  165  A    between atoms: _399  and  _400
REMARK  166  A    between atoms: _403  and  _405
REMARK  167  A    between atoms: _405  and  _406
REMARK  168  A    between atoms: _405  and  _408
REMARK  169  A    between atoms: _408  and  _409
REMARK  170  A    between atoms: _412  and  _414
REMARK  171  A    between atoms: _414  and  _415
REMARK  172  A    between atoms: _414  and  _417
REMARK  173  A    between atoms: _417  and  _418
REMARK  174  A    between atoms: _422  and  _423
REMARK  175  A    between atoms: _428  and  _430
REMARK  176  A    between atoms: _430  and  _431
REMARK  177  A    between atoms: _430  and  _433
REMARK  178  A    between atoms: _436  and  _438
REMARK  179  A    between atoms: _438  and  _439
REMARK  180  A    between atoms: _438  and  _441
REMARK  181  A    between atoms: _441  and  _442
REMARK  182  A    between atoms: _447  and  _449
REMARK  183  A    between atoms: _449  and  _450
REMARK  184  A    between atoms: _449  and  _452
REMARK  185  A    between atoms: _452  and  _453
REMARK  186  A    between atoms: _456  and  _458
REMARK  187  A    between atoms: _458  and  _459
REMARK  188  A    between atoms: _458  and  _461
REMARK  189  A    between atoms: _461  and  _462
REMARK  190  A    between atoms: _465  and  _467
REMARK  191  A    between atoms: _467  and  _468
REMARK  192  A    between atoms: _470  and  _472
REMARK  193  A    between atoms: _472  and  _473
REMARK  194  A    between atoms: _472  and  _475
REMARK  195  A    between atoms: _475  and  _476
REMARK  196  A    between atoms: _476  and  _477
REMARK  197  A    between atoms: _477  and  _478
REMARK  198  A    between atoms: _487  and  _489
REMARK  199  A    between atoms: _489  and  _490
REMARK  200  A    between atoms: _489  and  _492
REMARK  201  A    between atoms: _492  and  _493
REMARK                            x       y       z     vdW  Elec       q    Type
REMARK                         _______ _______ _______ _____ _____    ______ ____
ROOT
ATOM      1  CA  LEU A   1      16.331  13.454  -4.138  0.00  0.00    +0.133 C 
ENDROOT
BRANCH   1   2
ATOM      2  N   LEU A   1      17.155  14.334  -4.952  0.00  0.00    -0.239 NA
ATOM      3  H   LEU A   1      17.192  15.348  -4.723  0.00  0.00    +0.142 HD
ENDBRANCH   1   2
BRANCH   1   4
ATOM      4  C   LEU A   1      14.877  13.666  -4.497  0.00  0.00    +0.224 C 
ATOM      5  O   LEU A   1      14.372  14.781  -4.355  0.00  0.00    -0.287 OA
ENDBRANCH   1   4
BRANCH   1   6
ATOM      6  CB  LEU A   1      16.506  13.781  -2.664  0.00  0.00    +0.025 C 
BRANCH   6   7
ATOM      7  CG  LEU A   1      17.889  13.701  -2.037  0.00  0.00    +0.002 C 
ATOM      8  CD2 LEU A   1      17.808  14.085  -0.589  0.00  0.00    +0.000 C 
ATOM      9  CD1 LEU A   1      18.411  12.316  -2.155  0.00  0.00    +0.000 C 
ENDBRANCH   6   7
ENDBRANCH   1   6
TORSDOF 4
REMARK  Name = ../refined-set-2016/1hpo/1hpo_pocket.pdb
REMARK  201 active torsions:
REMARK  status: ('A' for Active; 'I' for Inactive)
REMARK    1  A    between atoms: _1  and  _3
REMARK    2  A    between atoms: _3  and  _4
REMARK    3  A    between atoms: _3  and  _6
REMARK    4  A    between atoms: _6  and  _7
REMARK    5  A    between atoms: _7  and  _8
REMARK    6  A    between atoms: _8  and  _9
REMARK    7  A    between atoms: _19  and  _20
REMARK    8  A    between atoms: _25  and  _27
REMARK    9  A    between atoms: _27  and  _28
REMARK   10  A    between atoms: _27  and  _30
REMARK   11  A    between atoms: _30  and  _31
REMARK   12  A    between atoms: _34  and  _36
REMARK   13  A    between atoms: _36  and  _37
REMARK   14  A    between atoms: _36  and  _39
REMARK   15  A    between atoms: _39  and  _40
REMARK   16  A    between atoms: _40  and  _41
REMARK   17  A    between atoms: _44  and  _46
REMARK   18  A    between atoms: _46  and  _47
REMARK   19  A    between atoms: _50  and  _52
REMARK   20  A    between atoms: _52  and  _53
REMARK   21  A    between atoms: _52  and  _55
REMARK   22  A    between atoms: _55  and  _56
REMARK   23  A    between atoms: _59  and  _61
REMARK   24  A    between atoms: _61  and  _62
REMARK   25  A    between atoms: _61  and  _64
REMARK   26  A    between atoms: _64  and  _65
REMARK   27  A    between atoms: _68  and  _70
REMARK   28  A    between atoms: _70  and  _71
REMARK   29  A    between atoms: _70  and  _73
REMARK   30  A    between atoms: _73  and  _74
REMARK   31  A    between atoms: _77  and  _79
REMARK   32  A    between atoms: _79  and  _80
REMARK   33  A    between atoms: _79  and  _82
REMARK   34  A    between atoms: _82  and  _83
REMARK   35  A    between atoms: _86  and  _88
REMARK   36  A    between atoms: _88  and  _89
REMARK   37  A    between atoms: _91  and  _93
REMARK   38  A    between atoms: _93  and  _94
REMARK   39  A    between atoms: _97  and  _99
REMARK   40  A    between atoms: _99  and  _100
REMARK   41  A    between atoms: _99  and  _102
REMARK   42  A    between atoms: _102  and  _103
REMARK   43  A    between atoms: _106  and  _108
REMARK   44  A    between atoms: _108  and  _109
REMARK   45  A    between atoms: _108  and  _111
REMARK   46  A    between atoms: _111  and  _112
REMARK   47  A    between atoms: _115  and  _117
REMARK   48  A    between atoms: _117  and  _118
REMARK   49  A    between atoms: _117  and  _120
REMARK   50  A    between atoms: _120  and  _121
REMARK   51  A    between atoms: _124  and  _126
REMARK   52  A    between atoms: _126  and  _127
REMARK   53  A    between atoms: _129  and  _131
REMARK   54  A    between atoms: _131  and  _132
REMARK   55  A    between atoms: _134  and  _136
REMARK   56  A    between atoms: _136  and  _137
REMARK   57  A    between atoms: _136  and  _139
REMARK   58  A    between atoms: _139  and  _140
REMARK   59  A    between atoms: _143  and  _145
REMARK   60  A    between atoms: _145  and  _146
REMARK   61  A    between atoms: _148  and  _150
REMARK   62  A    between atoms: _150  and  _151
REMARK   63  A    between atoms: _153  and  _155
REMARK   64  A    between atoms: _155  and  _156
REMARK   65  A    between atoms: _155  and  _158
REMARK   66  A    between atoms: _158  and  _159
REMARK   67  A    between atoms: _163  and  _164
REMARK   68  A    between atoms: _169  and  _171
REMARK   69  A    between atoms: _171  and  _172
REMARK   70  A    between atoms: _171  and  _174
REMARK   71  A    between atoms: _177  and  _179
REMARK   72  A    between atoms: _179  and  _180
REMARK   73  A    between atoms: _179  and  _182
REMARK   74  A    between atoms: _182  and  _183
REMARK   75  A    between atoms: _188  and  _190
REMARK   76  A    between atoms: _190  and  _191
REMARK   77  A    between atoms: _190  and  _193
REMARK   78  A    between atoms: _193  and  _194
REMARK   79  A    between atoms: _197  and  _199
REMARK   80  A    between atoms: _199  and  _200
REMARK   81  A    between atoms: _199  and  _202
REMARK   82  A    between atoms: _202  and  _203
REMARK   83  A    between atoms: _206  and  _208
REMARK   84  A    between atoms: _208  and  _209
REMARK   85  A    between atoms: _208  and  _211
REMARK   86  A    between atoms: _211  and  _212
REMARK   87  A    between atoms: _212  and  _213
REMARK   88  A    between atoms: _213  and  _214
REMARK   89  A    between atoms: _223  and  _225
REMARK   90  A    between atoms: _225  and  _226
REMARK   91  A    between atoms: _225  and  _228
REMARK   92  A    between atoms: _228  and  _229
REMARK   93  A    between atoms: _229  and  _230
REMARK   94  A    between atoms: _230  and  _231
REMARK   95  A    between atoms: _240  and  _242
REMARK   96  A    between atoms: _242  and  _243
REMARK   97  A    between atoms: _242  and  _245
REMARK   98  A    between atoms: _245  and  _246
REMARK   99  A    between atoms: _249  and  _251
REMARK  100  A    between atoms: _251  and  _252
REMARK  101  A    between atoms: _251  and  _254
REMARK  102  A    between atoms: _254  and  _255
REMARK  103  A    between atoms: _258  and  _260
REMARK  104  A    between atoms: _260  and  _261
REMARK  105  A    between atoms: _260  and  _263
REMARK  106  A    between atoms: _263  and  _264
REMARK  107  A    between atoms: _267  and  _269
REMARK  108  A    between atoms: _269  and  _270
REMARK  109  A    between atoms: _269  and  _272
REMARK  110  A    between atoms: _272  and  _273
REMARK  111  A    between atoms: _276  and  _278
REMARK  112  A    between atoms: _278  and  _279
REMARK  113  A    between atoms: _281  and  _283
REMARK  114  A    between atoms: _283  and  _284
REMARK  115  A    between atoms: _287  and  _289
REMARK  116  A    between atoms: _289  and  _290
REMARK  117  A    between atoms: _289  and  _292
REMARK  118  A    between atoms: _292  and  _293
REMARK  119  A    between atoms: _296  and  _298
REMARK  120  A    between atoms: _298  and  _299
REMARK  121  A    between atoms: _298  and  _301
REMARK  122  A    between atoms: _301  and  _302
REMARK  123  A    between atoms: _305  and  _307
REMARK  124  A    between atoms: _307  and  _308
REMARK  125  A    between atoms: _307  and  _310
REMARK  126  A    between atoms: _310  and  _311
REMARK  127  A    between atoms: _314  and  _316
REMARK  128  A    between atoms: _316  and  _317
REMARK  129  A    between atoms: _316  and  _319
REMARK  130  A    between atoms: _322  and  _324
REMARK  131  A    between atoms: _324  and  _325
REMARK  132  A    between atoms: _324  and  _327
REMARK  133  A    between atoms: _327  and  _328
REMARK  134  A    between atoms: _328  and  _329
REMARK  135  A    between atoms: _329  and  _330
REMARK  136  A    between atoms: _330  and  _331
REMARK  137  A    between atoms: _335  and  _337
REMARK  138  A    between atoms: _337  and  _338
REMARK  139  A    between atoms: _337  and  _340
REMARK  140  A    between atoms: _340  and  _341
REMARK  141  A    between atoms: _341  and  _342
REMARK  142  A    between atoms: _344  and  _346
REMARK  143  A    between atoms: _346  and  _347
REMARK  144  A    between atoms: _346  and  _349
REMARK  145  A    between atoms: _349  and  _350
REMARK  146  A    between atoms: _353  and  _355
REMARK  147  A    between atoms: _355  and  _356
REMARK  148  A    between atoms: _358  and  _360
REMARK  149  A    between atoms: _360  and  _361
REMARK  150  A    between atoms: _363  and  _365
REMARK  151  A    between atoms: _365  and  _366
REMARK  152  A    between atoms: _365  and  _368
REMARK  153  A    between atoms: _368  and  _369
REMARK  154  A    between atoms: _372  and  _374
REMARK  155  A    between atoms: _374  and  _375
REMARK  156  A    between atoms: _377  and  _379
REMARK  157  A    between atoms: _379  and  _380
REMARK  158  A    between atoms: _382  and  _384
REMARK  159  A    between atoms: _384  and  _385
REMARK  160  A    between atoms: _384  and  _387
REMARK  161  A    between atoms: _387  and  _388
REMARK  162  A    between atoms: _394  and  _396
REMARK  163  A    between atoms: _396  and  _397
REMARK  164  A    between atoms: _396  and  _399
REMARK  165  A    between atoms: _399  and  _400
REMARK  166  A    between atoms: _403  and  _405
REMARK  167  A    between atoms: _405  and  _406
REMARK  168  A    between atoms: _405  and  _408
REMARK  169  A    between atoms: _408  and  _409
REMARK  170  A    between atoms: _412  and  _414
REMARK  171  A    between atoms: _414  and  _415
REMARK  172  A    between atoms: _414  and  _417
REMARK  173  A    between atoms: _417  and  _418
REMARK  174  A    between atoms: _422  and  _423
REMARK  175  A    between atoms: _428  and  _430
REMARK  176  A    between atoms: _430  and  _431
REMARK  177  A    between atoms: _430  and  _433
REMARK  178  A    between atoms: _436  and  _438
REMARK  179  A    between atoms: _438  and  _439
REMARK  180  A    between atoms: _438  and  _441
REMARK  181  A    between atoms: _441  and  _442
REMARK  182  A    between atoms: _447  and  _449
REMARK  183  A    between atoms: _449  and  _450
REMARK  184  A    between atoms: _449  and  _452
REMARK  185  A    between atoms: _452  and  _453
REMARK  186  A    between atoms: _456  and  _458
REMARK  187  A    between atoms: _458  and  _459
REMARK  188  A    between atoms: _458  and  _461
REMARK  189  A    between atoms: _461  and  _462
REMARK  190  A    between atoms: _465  and  _467
REMARK  191  A    between atoms: _467  and  _468
REMARK  192  A    between atoms: _470  and  _472
REMARK  193  A    between atoms: _472  and  _473
REMARK  194  A    between atoms: _472  and  _475
REMARK  195  A    between atoms: _475  and  _476
REMARK  196  A    between atoms: _476  and  _477
REMARK  197  A    between atoms: _477  and  _478
REMARK  198  A    between atoms: _487  and  _489
REMARK  199  A    between atoms: _489  and  _490
REMARK  200  A    between atoms: _489  and  _492
REMARK  201  A    between atoms: _492  and  _493
REMARK                            x       y       z     vdW  Elec       q    Type
REMARK                         _______ _______ _______ _____ _____    ______ ____
ROOT
ATOM      1  C   ILE A   5      15.334  22.609  -3.815  0.00  0.00    +0.241 C 
ATOM      2  N   ILE A   6      16.210  23.608  -3.873  0.00  0.00    -0.297 N 
ATOM      3  H   ILE A   6      15.938  24.519  -3.452  0.00  0.00    +0.150 HD
ATOM      4  O   ILE A   5      15.542  21.503  -4.293  0.00  0.00    -0.273 OA
ENDROOT
BRANCH   2   5
ATOM      5  CA  ILE A   6      17.527  23.507  -4.489  0.00  0.00    +0.149 C 
BRANCH   5   6
ATOM      6  C   ILE A   6      18.440  23.746  -3.313  0.00  0.00    +0.241 C 
ATOM      7  O   ILE A   6      18.500  24.862  -2.828  0.00  0.00    -0.273 OA
ATOM      8  N   GLY A   7      19.163  22.729  -2.868  0.00  0.00    -0.295 N 
ATOM      9  H   GLY A   7      19.105  21.807  -3.347  0.00  0.00    +0.150 HD
BRANCH   8  10
ATOM     10  CA  GLY A   7      20.034  22.888  -1.721  0.00  0.00    +0.176 C 
BRANCH  10  11
ATOM     11  C   GLY A   7      21.467  23.209  -2.054  0.00  0.00    +0.243 C 
ATOM     12  N   ARG A   8      22.303  23.290  -1.024  0.00  0.00    -0.297 N 
ATOM     13  H   ARG A   8      21.939  23.088  -0.071  0.00  0.00    +0.150 HD
ATOM     14  O   GLY A   7      21.824  23.309  -3.220  0.00  0.00    -0.273 OA
BRANCH  12  15
ATOM     15  CA  ARG A   8      23.701  23.648  -1.172  0.00  0.00    +0.149 C 
BRANCH  15  16
ATOM     16  C   ARG A   8      24.513  22.759  -2.096  0.00  0.00    +0.241 C 
ATOM     17  N   ASN A   9      24.133  21.497  -2.239  0.00  0.00    -0.298 N 
ATOM     18  H   ASN A   9      23.288  21.143  -1.747  0.00  0.00    +0.150 HD
ATOM     19  O   ARG A   8      25.484  23.207  -2.691  0.00  0.00    -0.273 OA
BRANCH  17  20
ATOM     20  CA  ASN A   9      24.910  20.616  -3.091  0.00  0.00    +0.146 C 
BRANCH  20  21
ATOM     21  C   ASN A   9      24.983  21.159  -4.500  0.00  0.00    +0.227 C 
ATOM     22  O   ASN A   9      26.030  21.087  -5.130  0.00  0.00    -0.286 OA
ENDBRANCH  20  21
BRANCH  20  23
ATOM     23  CB  ASN A   9      24.344  19.196  -3.082  0.00  0.00    +0.112 C 
BRANCH  23  24
ATOM     24  CG  ASN A   9      23.086  19.069  -3.868  0.00  0.00    +0.222 C 
ATOM     25  OD1 ASN A   9      22.062  19.603  -3.487  0.00  0.00    -0.275 OA
ATOM     26  ND2 ASN A   9      23.140  18.356  -4.975  0.00  0.00    -0.329 N 
ATOM     27 HD21 ASN A   9      24.036  17.915  -5.266  0.00  0.00    +0.145 HD
ATOM     28 HD22 ASN A   9      22.287  18.234  -5.557  0.00  0.00    +0.145 HD
ENDBRANCH  23  24
ENDBRANCH  20  23
ENDBRANCH  17  20
ENDBRANCH  15  16
BRANCH  15  29
ATOM     29  CB  ARG A   8      24.360  23.700   0.208  0.00  0.00    +0.033 C 
BRANCH  29  30
ATOM     30  CG  ARG A   8      23.887  24.827   1.128  0.00  0.00    +0.045 C 
BRANCH  30  31
ATOM     31  CD  ARG A   8      24.350  24.586   2.566  0.00  0.00    +0.174 C 
BRANCH  31  32
ATOM     32  NE  ARG A   8      25.708  24.081   2.569  0.00  0.00    -0.265 N 
ATOM     33  CZ  ARG A   8      26.072  22.942   3.136  0.00  0.00    +0.342 C 
ATOM     34  NH2 ARG A   8      25.178  22.221   3.765  0.00  0.00    -0.292 N 
ATOM     35 HH21 ARG A   8      25.455  21.325   4.214  0.00  0.00    +0.255 HD
ATOM     36 HH22 ARG A   8      24.191  22.545   3.816  0.00  0.00    +0.255 HD
ATOM     37  NH1 ARG A   8      27.283  22.443   2.928  0.00  0.00    -0.292 N 
ATOM     38 HH11 ARG A   8      27.561  21.547   3.378  0.00  0.00    +0.255 HD
ATOM     39 HH12 ARG A   8      27.955  22.947   2.315  0.00  0.00    +0.255 HD
ATOM     40  HE  ARG A   8      26.441  24.648   2.097  0.00  0.00    +0.259 HD
ENDBRANCH  31  32
ENDBRANCH  30  31
ENDBRANCH  29  30
ENDBRANCH  15  29
ENDBRANCH  12  15
ENDBRANCH  10  11
ENDBRANCH   8  10
ENDBRANCH   5   6
BRANCH   5  41
ATOM     41  CB  ILE A   6      17.790  24.623  -5.508  0.00  0.00    +0.027 C 
ATOM     42  CG2 ILE A   6      19.234  24.588  -5.969  0.00  0.00    +0.002 C 
BRANCH  41  43
ATOM     43  CG1 ILE A   6      16.860  24.496  -6.695  0.00  0.00    +0.002 C 
ATOM     44  CD1 ILE A   6      17.104  23.297  -7.534  0.00  0.00    +0.000 C 
ENDBRANCH  41  43
ENDBRANCH   5  41
ENDBRANCH   2   5
BRANCH   1  45
ATOM     45  CA  ILE A   5      14.043  22.867  -3.066  0.00  0.00    +0.149 C 
BRANCH  45  47
ATOM     46  C   ASN A   4      11.929  22.715  -4.344  0.00  0.00    +0.241 C 
ATOM     47  N   ILE A   5      12.991  22.162  -3.766  0.00  0.00    -0.297 N 
ATOM     48  H   ILE A   5      13.073  21.127  -3.822  0.00  0.00    +0.150 HD
ATOM     49  O   ASN A   4      11.793  23.933  -4.529  0.00  0.00    -0.273 OA
BRANCH  46  50
ATOM     50  CA  ASN A   4      10.954  21.716  -4.961  0.00  0.00    +0.158 C 
BRANCH  50  53
ATOM     51  C   VAL A   3       9.190  21.973  -3.304  0.00  0.00    +0.241 C 
ATOM     52  O   VAL A   3       9.864  21.477  -2.422  0.00  0.00    -0.273 OA
ATOM     53  N   ASN A   4       9.609  22.093  -4.557  0.00  0.00    -0.297 N 
ATOM     54  H   ASN A   4       8.955  22.469  -5.273  0.00  0.00    +0.150 HD
BRANCH  51  55
ATOM     55  CA  VAL A   3       7.788  22.447  -3.003  0.00  0.00    +0.149 C 
BRANCH  55  57
ATOM     56  C   PRO A   2       6.013  21.523  -1.607  0.00  0.00    +0.241 C 
ATOM     57  N   VAL A   3       7.307  21.718  -1.851  0.00  0.00    -0.297 N 
ATOM     58  H   VAL A   3       8.003  21.329  -1.183  0.00  0.00    +0.150 HD
ATOM     59  O   PRO A   2       5.124  22.095  -2.211  0.00  0.00    -0.273 OA
BRANCH  56  65
ATOM     60  C   THR A   1       6.895  18.572  -0.966  0.00  0.00    +0.244 C 
ATOM     61  N   PRO A   2       6.667  19.621  -0.149  0.00  0.00    -0.272 N 
ATOM     62  CD  PRO A   2       7.363  19.812   1.139  0.00  0.00    +0.094 C 
ATOM     63  CG  PRO A   2       6.406  20.667   1.905  0.00  0.00    +0.024 C 
ATOM     64  CB  PRO A   2       5.890  21.589   0.871  0.00  0.00    +0.031 C 
ATOM     65  CA  PRO A   2       5.700  20.706  -0.362  0.00  0.00    +0.152 C 
ATOM     66  O   THR A   1       6.235  18.377  -1.992  0.00  0.00    -0.273 OA
BRANCH  60  67
ATOM     67  CA  THR A   1       7.959  17.561  -0.542  0.00  0.00    +0.172 C 
BRANCH  67  68
ATOM     68  CB  THR A   1       9.345  17.948  -1.093  0.00  0.00    +0.135 C 
ATOM     69  CG2 THR A   1       9.361  17.883  -2.602  0.00  0.00    +0.034 C 
BRANCH  68  70
ATOM     70  OG1 THR A   1       9.670  19.263  -0.663  0.00  0.00    -0.383 OA
ATOM     71  HG1 THR A   1       8.989  19.897  -1.001  0.00  0.00    +0.210 HD
ENDBRANCH  68  70
ENDBRANCH  67  68
BRANCH  67  72
ATOM     72  N   THR A   1       7.628  16.228  -1.013  0.00  0.00    -0.236 NA
ATOM     73  H   THR A   1       7.811  16.001  -2.011  0.00  0.00    +0.142 HD
ENDBRANCH  67  72
ENDBRANCH  60  67
ENDBRANCH  56  65
ENDBRANCH  55  57
BRANCH  55  74
ATOM     74  CB  VAL A   3       7.853  23.951  -2.736  0.00  0.00    +0.027 C 
ATOM     75  CG2 VAL A   3       8.727  24.226  -1.544  0.00  0.00    +0.002 C 
ATOM     76  CG1 VAL A   3       6.457  24.516  -2.542  0.00  0.00    +0.002 C 
ENDBRANCH  55  74
ENDBRANCH  51  55
ENDBRANCH  50  53
BRANCH  50  77
ATOM     77  CB  ASN A   4      11.114  21.785  -6.475  0.00  0.00    +0.114 C 
BRANCH  77  78
ATOM     78  CG  ASN A   4      10.048  21.044  -7.215  0.00  0.00    +0.222 C 
ATOM     79  OD1 ASN A   4       9.507  20.063  -6.730  0.00  0.00    -0.275 OA
ATOM     80  ND2 ASN A   4       9.712  21.531  -8.398  0.00  0.00    -0.329 N 
ATOM     81 HD21 ASN A   4      10.200  22.369  -8.773  0.00  0.00    +0.145 HD
ATOM     82 HD22 ASN A   4       8.960  21.075  -8.953  0.00  0.00    +0.145 HD
ENDBRANCH  77  78
ENDBRANCH  50  77
ENDBRANCH  46  50
ENDBRANCH  45  47
BRANCH  45  83
ATOM     83  CB  ILE A   5      14.226  22.206  -1.692  0.00  0.00    +0.027 C 
ATOM     84  CG2 ILE A   5      15.170  22.953  -0.845  0.00  0.00    +0.002 C 
BRANCH  83  85
ATOM     85  CG1 ILE A   5      12.897  22.067  -0.991  0.00  0.00    +0.002 C 
ATOM     86  CD1 ILE A   5      12.228  23.352  -0.699  0.00  0.00    +0.000 C 
ENDBRANCH  83  85
ENDBRANCH  45  83
ENDBRANCH   1  45
TORSDOF 32
REMARK  Name = ../refined-set-2016/1hpo/1hpo_pocket.pdb
REMARK  201 active torsions:
REMARK  status: ('A' for Active; 'I' for Inactive)
REMARK    1  A    between atoms: _1  and  _3
REMARK    2  A    between atoms: _3  and  _4
REMARK    3  A    between atoms: _3  and  _6
REMARK    4  A    between atoms: _6  and  _7
REMARK    5  A    between atoms: _7  and  _8
REMARK    6  A    between atoms: _8  and  _9
REMARK    7  A    between atoms: _19  and  _20
REMARK    8  A    between atoms: _25  and  _27
REMARK    9  A    between atoms: _27  and  _28
REMARK   10  A    between atoms: _27  and  _30
REMARK   11  A    between atoms: _30  and  _31
REMARK   12  A    between atoms: _34  and  _36
REMARK   13  A    between atoms: _36  and  _37
REMARK   14  A    between atoms: _36  and  _39
REMARK   15  A    between atoms: _39  and  _40
REMARK   16  A    between atoms: _40  and  _41
REMARK   17  A    between atoms: _44  and  _46
REMARK   18  A    between atoms: _46  and  _47
REMARK   19  A    between atoms: _50  and  _52
REMARK   20  A    between atoms: _52  and  _53
REMARK   21  A    between atoms: _52  and  _55
REMARK   22  A    between atoms: _55  and  _56
REMARK   23  A    between atoms: _59  and  _61
REMARK   24  A    between atoms: _61  and  _62
REMARK   25  A    between atoms: _61  and  _64
REMARK   26  A    between atoms: _64  and  _65
REMARK   27  A    between atoms: _68  and  _70
REMARK   28  A    between atoms: _70  and  _71
REMARK   29  A    between atoms: _70  and  _73
REMARK   30  A    between atoms: _73  and  _74
REMARK   31  A    between atoms: _77  and  _79
REMARK   32  A    between atoms: _79  and  _80
REMARK   33  A    between atoms: _79  and  _82
REMARK   34  A    between atoms: _82  and  _83
REMARK   35  A    between atoms: _86  and  _88
REMARK   36  A    between atoms: _88  and  _89
REMARK   37  A    between atoms: _91  and  _93
REMARK   38  A    between atoms: _93  and  _94
REMARK   39  A    between atoms: _97  and  _99
REMARK   40  A    between atoms: _99  and  _100
REMARK   41  A    between atoms: _99  and  _102
REMARK   42  A    between atoms: _102  and  _103
REMARK   43  A    between atoms: _106  and  _108
REMARK   44  A    between atoms: _108  and  _109
REMARK   45  A    between atoms: _108  and  _111
REMARK   46  A    between atoms: _111  and  _112
REMARK   47  A    between atoms: _115  and  _117
REMARK   48  A    between atoms: _117  and  _118
REMARK   49  A    between atoms: _117  and  _120
REMARK   50  A    between atoms: _120  and  _121
REMARK   51  A    between atoms: _124  and  _126
REMARK   52  A    between atoms: _126  and  _127
REMARK   53  A    between atoms: _129  and  _131
REMARK   54  A    between atoms: _131  and  _132
REMARK   55  A    between atoms: _134  and  _136
REMARK   56  A    between atoms: _136  and  _137
REMARK   57  A    between atoms: _136  and  _139
REMARK   58  A    between atoms: _139  and  _140
REMARK   59  A    between atoms: _143  and  _145
REMARK   60  A    between atoms: _145  and  _146
REMARK   61  A    between atoms: _148  and  _150
REMARK   62  A    between atoms: _150  and  _151
REMARK   63  A    between atoms: _153  and  _155
REMARK   64  A    between atoms: _155  and  _156
REMARK   65  A    between atoms: _155  and  _158
REMARK   66  A    between atoms: _158  and  _159
REMARK   67  A    between atoms: _163  and  _164
REMARK   68  A    between atoms: _169  and  _171
REMARK   69  A    between atoms: _171  and  _172
REMARK   70  A    between atoms: _171  and  _174
REMARK   71  A    between atoms: _177  and  _179
REMARK   72  A    between atoms: _179  and  _180
REMARK   73  A    between atoms: _179  and  _182
REMARK   74  A    between atoms: _182  and  _183
REMARK   75  A    between atoms: _188  and  _190
REMARK   76  A    between atoms: _190  and  _191
REMARK   77  A    between atoms: _190  and  _193
REMARK   78  A    between atoms: _193  and  _194
REMARK   79  A    between atoms: _197  and  _199
REMARK   80  A    between atoms: _199  and  _200
REMARK   81  A    between atoms: _199  and  _202
REMARK   82  A    between atoms: _202  and  _203
REMARK   83  A    between atoms: _206  and  _208
REMARK   84  A    between atoms: _208  and  _209
REMARK   85  A    between atoms: _208  and  _211
REMARK   86  A    between atoms: _211  and  _212
REMARK   87  A    between atoms: _212  and  _213
REMARK   88  A    between atoms: _213  and  _214
REMARK   89  A    between atoms: _223  and  _225
REMARK   90  A    between atoms: _225  and  _226
REMARK   91  A    between atoms: _225  and  _228
REMARK   92  A    between atoms: _228  and  _229
REMARK   93  A    between atoms: _229  and  _230
REMARK   94  A    between atoms: _230  and  _231
REMARK   95  A    between atoms: _240  and  _242
REMARK   96  A    between atoms: _242  and  _243
REMARK   97  A    between atoms: _242  and  _245
REMARK   98  A    between atoms: _245  and  _246
REMARK   99  A    between atoms: _249  and  _251
REMARK  100  A    between atoms: _251  and  _252
REMARK  101  A    between atoms: _251  and  _254
REMARK  102  A    between atoms: _254  and  _255
REMARK  103  A    between atoms: _258  and  _260
REMARK  104  A    between atoms: _260  and  _261
REMARK  105  A    between atoms: _260  and  _263
REMARK  106  A    between atoms: _263  and  _264
REMARK  107  A    between atoms: _267  and  _269
REMARK  108  A    between atoms: _269  and  _270
REMARK  109  A    between atoms: _269  and  _272
REMARK  110  A    between atoms: _272  and  _273
REMARK  111  A    between atoms: _276  and  _278
REMARK  112  A    between atoms: _278  and  _279
REMARK  113  A    between atoms: _281  and  _283
REMARK  114  A    between atoms: _283  and  _284
REMARK  115  A    between atoms: _287  and  _289
REMARK  116  A    between atoms: _289  and  _290
REMARK  117  A    between atoms: _289  and  _292
REMARK  118  A    between atoms: _292  and  _293
REMARK  119  A    between atoms: _296  and  _298
REMARK  120  A    between atoms: _298  and  _299
REMARK  121  A    between atoms: _298  and  _301
REMARK  122  A    between atoms: _301  and  _302
REMARK  123  A    between atoms: _305  and  _307
REMARK  124  A    between atoms: _307  and  _308
REMARK  125  A    between atoms: _307  and  _310
REMARK  126  A    between atoms: _310  and  _311
REMARK  127  A    between atoms: _314  and  _316
REMARK  128  A    between atoms: _316  and  _317
REMARK  129  A    between atoms: _316  and  _319
REMARK  130  A    between atoms: _322  and  _324
REMARK  131  A    between atoms: _324  and  _325
REMARK  132  A    between atoms: _324  and  _327
REMARK  133  A    between atoms: _327  and  _328
REMARK  134  A    between atoms: _328  and  _329
REMARK  135  A    between atoms: _329  and  _330
REMARK  136  A    between atoms: _330  and  _331
REMARK  137  A    between atoms: _335  and  _337
REMARK  138  A    between atoms: _337  and  _338
REMARK  139  A    between atoms: _337  and  _340
REMARK  140  A    between atoms: _340  and  _341
REMARK  141  A    between atoms: _341  and  _342
REMARK  142  A    between atoms: _344  and  _346
REMARK  143  A    between atoms: _346  and  _347
REMARK  144  A    between atoms: _346  and  _349
REMARK  145  A    between atoms: _349  and  _350
REMARK  146  A    between atoms: _353  and  _355
REMARK  147  A    between atoms: _355  and  _356
REMARK  148  A    between atoms: _358  and  _360
REMARK  149  A    between atoms: _360  and  _361
REMARK  150  A    between atoms: _363  and  _365
REMARK  151  A    between atoms: _365  and  _366
REMARK  152  A    between atoms: _365  and  _368
REMARK  153  A    between atoms: _368  and  _369
REMARK  154  A    between atoms: _372  and  _374
REMARK  155  A    between atoms: _374  and  _375
REMARK  156  A    between atoms: _377  and  _379
REMARK  157  A    between atoms: _379  and  _380
REMARK  158  A    between atoms: _382  and  _384
REMARK  159  A    between atoms: _384  and  _385
REMARK  160  A    between atoms: _384  and  _387
REMARK  161  A    between atoms: _387  and  _388
REMARK  162  A    between atoms: _394  and  _396
REMARK  163  A    between atoms: _396  and  _397
REMARK  164  A    between atoms: _396  and  _399
REMARK  165  A    between atoms: _399  and  _400
REMARK  166  A    between atoms: _403  and  _405
REMARK  167  A    between atoms: _405  and  _406
REMARK  168  A    between atoms: _405  and  _408
REMARK  169  A    between atoms: _408  and  _409
REMARK  170  A    between atoms: _412  and  _414
REMARK  171  A    between atoms: _414  and  _415
REMARK  172  A    between atoms: _414  and  _417
REMARK  173  A    between atoms: _417  and  _418
REMARK  174  A    between atoms: _422  and  _423
REMARK  175  A    between atoms: _428  and  _430
REMARK  176  A    between atoms: _430  and  _431
REMARK  177  A    between atoms: _430  and  _433
REMARK  178  A    between atoms: _436  and  _438
REMARK  179  A    between atoms: _438  and  _439
REMARK  180  A    between atoms: _438  and  _441
REMARK  181  A    between atoms: _441  and  _442
REMARK  182  A    between atoms: _447  and  _449
REMARK  183  A    between atoms: _449  and  _450
REMARK  184  A    between atoms: _449  and  _452
REMARK  185  A    between atoms: _452  and  _453
REMARK  186  A    between atoms: _456  and  _458
REMARK  187  A    between atoms: _458  and  _459
REMARK  188  A    between atoms: _458  and  _461
REMARK  189  A    between atoms: _461  and  _462
REMARK  190  A    between atoms: _465  and  _467
REMARK  191  A    between atoms: _467  and  _468
REMARK  192  A    between atoms: _470  and  _472
REMARK  193  A    between atoms: _472  and  _473
REMARK  194  A    between atoms: _472  and  _475
REMARK  195  A    between atoms: _475  and  _476
REMARK  196  A    between atoms: _476  and  _477
REMARK  197  A    between atoms: _477  and  _478
REMARK  198  A    between atoms: _487  and  _489
REMARK  199  A    between atoms: _489  and  _490
REMARK  200  A    between atoms: _489  and  _492
REMARK  201  A    between atoms: _492  and  _493
REMARK                            x       y       z     vdW  Elec       q    Type
REMARK                         _______ _______ _______ _____ _____    ______ ____
ROOT
ATOM      1  O   HOH     1      24.183  21.681  12.458  0.00  0.00    +0.000 OA
ENDROOT
TORSDOF 0
REMARK  Name = ../refined-set-2016/1hpo/1hpo_pocket.pdb
REMARK  201 active torsions:
REMARK  status: ('A' for Active; 'I' for Inactive)
REMARK    1  A    between atoms: _1  and  _3
REMARK    2  A    between atoms: _3  and  _4
REMARK    3  A    between atoms: _3  and  _6
REMARK    4  A    between atoms: _6  and  _7
REMARK    5  A    between atoms: _7  and  _8
REMARK    6  A    between atoms: _8  and  _9
REMARK    7  A    between atoms: _19  and  _20
REMARK    8  A    between atoms: _25  and  _27
REMARK    9  A    between atoms: _27  and  _28
REMARK   10  A    between atoms: _27  and  _30
REMARK   11  A    between atoms: _30  and  _31
REMARK   12  A    between atoms: _34  and  _36
REMARK   13  A    between atoms: _36  and  _37
REMARK   14  A    between atoms: _36  and  _39
REMARK   15  A    between atoms: _39  and  _40
REMARK   16  A    between atoms: _40  and  _41
REMARK   17  A    between atoms: _44  and  _46
REMARK   18  A    between atoms: _46  and  _47
REMARK   19  A    between atoms: _50  and  _52
REMARK   20  A    between atoms: _52  and  _53
REMARK   21  A    between atoms: _52  and  _55
REMARK   22  A    between atoms: _55  and  _56
REMARK   23  A    between atoms: _59  and  _61
REMARK   24  A    between atoms: _61  and  _62
REMARK   25  A    between atoms: _61  and  _64
REMARK   26  A    between atoms: _64  and  _65
REMARK   27  A    between atoms: _68  and  _70
REMARK   28  A    between atoms: _70  and  _71
REMARK   29  A    between atoms: _70  and  _73
REMARK   30  A    between atoms: _73  and  _74
REMARK   31  A    between atoms: _77  and  _79
REMARK   32  A    between atoms: _79  and  _80
REMARK   33  A    between atoms: _79  and  _82
REMARK   34  A    between atoms: _82  and  _83
REMARK   35  A    between atoms: _86  and  _88
REMARK   36  A    between atoms: _88  and  _89
REMARK   37  A    between atoms: _91  and  _93
REMARK   38  A    between atoms: _93  and  _94
REMARK   39  A    between atoms: _97  and  _99
REMARK   40  A    between atoms: _99  and  _100
REMARK   41  A    between atoms: _99  and  _102
REMARK   42  A    between atoms: _102  and  _103
REMARK   43  A    between atoms: _106  and  _108
REMARK   44  A    between atoms: _108  and  _109
REMARK   45  A    between atoms: _108  and  _111
REMARK   46  A    between atoms: _111  and  _112
REMARK   47  A    between atoms: _115  and  _117
REMARK   48  A    between atoms: _117  and  _118
REMARK   49  A    between atoms: _117  and  _120
REMARK   50  A    between atoms: _120  and  _121
REMARK   51  A    between atoms: _124  and  _126
REMARK   52  A    between atoms: _126  and  _127
REMARK   53  A    between atoms: _129  and  _131
REMARK   54  A    between atoms: _131  and  _132
REMARK   55  A    between atoms: _134  and  _136
REMARK   56  A    between atoms: _136  and  _137
REMARK   57  A    between atoms: _136  and  _139
REMARK   58  A    between atoms: _139  and  _140
REMARK   59  A    between atoms: _143  and  _145
REMARK   60  A    between atoms: _145  and  _146
REMARK   61  A    between atoms: _148  and  _150
REMARK   62  A    between atoms: _150  and  _151
REMARK   63  A    between atoms: _153  and  _155
REMARK   64  A    between atoms: _155  and  _156
REMARK   65  A    between atoms: _155  and  _158
REMARK   66  A    between atoms: _158  and  _159
REMARK   67  A    between atoms: _163  and  _164
REMARK   68  A    between atoms: _169  and  _171
REMARK   69  A    between atoms: _171  and  _172
REMARK   70  A    between atoms: _171  and  _174
REMARK   71  A    between atoms: _177  and  _179
REMARK   72  A    between atoms: _179  and  _180
REMARK   73  A    between atoms: _179  and  _182
REMARK   74  A    between atoms: _182  and  _183
REMARK   75  A    between atoms: _188  and  _190
REMARK   76  A    between atoms: _190  and  _191
REMARK   77  A    between atoms: _190  and  _193
REMARK   78  A    between atoms: _193  and  _194
REMARK   79  A    between atoms: _197  and  _199
REMARK   80  A    between atoms: _199  and  _200
REMARK   81  A    between atoms: _199  and  _202
REMARK   82  A    between atoms: _202  and  _203
REMARK   83  A    between atoms: _206  and  _208
REMARK   84  A    between atoms: _208  and  _209
REMARK   85  A    between atoms: _208  and  _211
REMARK   86  A    between atoms: _211  and  _212
REMARK   87  A    between atoms: _212  and  _213
REMARK   88  A    between atoms: _213  and  _214
REMARK   89  A    between atoms: _223  and  _225
REMARK   90  A    between atoms: _225  and  _226
REMARK   91  A    between atoms: _225  and  _228
REMARK   92  A    between atoms: _228  and  _229
REMARK   93  A    between atoms: _229  and  _230
REMARK   94  A    between atoms: _230  and  _231
REMARK   95  A    between atoms: _240  and  _242
REMARK   96  A    between atoms: _242  and  _243
REMARK   97  A    between atoms: _242  and  _245
REMARK   98  A    between atoms: _245  and  _246
REMARK   99  A    between atoms: _249  and  _251
REMARK  100  A    between atoms: _251  and  _252
REMARK  101  A    between atoms: _251  and  _254
REMARK  102  A    between atoms: _254  and  _255
REMARK  103  A    between atoms: _258  and  _260
REMARK  104  A    between atoms: _260  and  _261
REMARK  105  A    between atoms: _260  and  _263
REMARK  106  A    between atoms: _263  and  _264
REMARK  107  A    between atoms: _267  and  _269
REMARK  108  A    between atoms: _269  and  _270
REMARK  109  A    between atoms: _269  and  _272
REMARK  110  A    between atoms: _272  and  _273
REMARK  111  A    between atoms: _276  and  _278
REMARK  112  A    between atoms: _278  and  _279
REMARK  113  A    between atoms: _281  and  _283
REMARK  114  A    between atoms: _283  and  _284
REMARK  115  A    between atoms: _287  and  _289
REMARK  116  A    between atoms: _289  and  _290
REMARK  117  A    between atoms: _289  and  _292
REMARK  118  A    between atoms: _292  and  _293
REMARK  119  A    between atoms: _296  and  _298
REMARK  120  A    between atoms: _298  and  _299
REMARK  121  A    between atoms: _298  and  _301
REMARK  122  A    between atoms: _301  and  _302
REMARK  123  A    between atoms: _305  and  _307
REMARK  124  A    between atoms: _307  and  _308
REMARK  125  A    between atoms: _307  and  _310
REMARK  126  A    between atoms: _310  and  _311
REMARK  127  A    between atoms: _314  and  _316
REMARK  128  A    between atoms: _316  and  _317
REMARK  129  A    between atoms: _316  and  _319
REMARK  130  A    between atoms: _322  and  _324
REMARK  131  A    between atoms: _324  and  _325
REMARK  132  A    between atoms: _324  and  _327
REMARK  133  A    between atoms: _327  and  _328
REMARK  134  A    between atoms: _328  and  _329
REMARK  135  A    between atoms: _329  and  _330
REMARK  136  A    between atoms: _330  and  _331
REMARK  137  A    between atoms: _335  and  _337
REMARK  138  A    between atoms: _337  and  _338
REMARK  139  A    between atoms: _337  and  _340
REMARK  140  A    between atoms: _340  and  _341
REMARK  141  A    between atoms: _341  and  _342
REMARK  142  A    between atoms: _344  and  _346
REMARK  143  A    between atoms: _346  and  _347
REMARK  144  A    between atoms: _346  and  _349
REMARK  145  A    between atoms: _349  and  _350
REMARK  146  A    between atoms: _353  and  _355
REMARK  147  A    between atoms: _355  and  _356
REMARK  148  A    between atoms: _358  and  _360
REMARK  149  A    between atoms: _360  and  _361
REMARK  150  A    between atoms: _363  and  _365
REMARK  151  A    between atoms: _365  and  _366
REMARK  152  A    between atoms: _365  and  _368
REMARK  153  A    between atoms: _368  and  _369
REMARK  154  A    between atoms: _372  and  _374
REMARK  155  A    between atoms: _374  and  _375
REMARK  156  A    between atoms: _377  and  _379
REMARK  157  A    between atoms: _379  and  _380
REMARK  158  A    between atoms: _382  and  _384
REMARK  159  A    between atoms: _384  and  _385
REMARK  160  A    between atoms: _384  and  _387
REMARK  161  A    between atoms: _387  and  _388
REMARK  162  A    between atoms: _394  and  _396
REMARK  163  A    between atoms: _396  and  _397
REMARK  164  A    between atoms: _396  and  _399
REMARK  165  A    between atoms: _399  and  _400
REMARK  166  A    between atoms: _403  and  _405
REMARK  167  A    between atoms: _405  and  _406
REMARK  168  A    between atoms: _405  and  _408
REMARK  169  A    between atoms: _408  and  _409
REMARK  170  A    between atoms: _412  and  _414
REMARK  171  A    between atoms: _414  and  _415
REMARK  172  A    between atoms: _414  and  _417
REMARK  173  A    between atoms: _417  and  _418
REMARK  174  A    between atoms: _422  and  _423
REMARK  175  A    between atoms: _428  and  _430
REMARK  176  A    between atoms: _430  and  _431
REMARK  177  A    between atoms: _430  and  _433
REMARK  178  A    between atoms: _436  and  _438
REMARK  179  A    between atoms: _438  and  _439
REMARK  180  A    between atoms: _438  and  _441
REMARK  181  A    between atoms: _441  and  _442
REMARK  182  A    between atoms: _447  and  _449
REMARK  183  A    between atoms: _449  and  _450
REMARK  184  A    between atoms: _449  and  _452
REMARK  185  A    between atoms: _452  and  _453
REMARK  186  A    between atoms: _456  and  _458
REMARK  187  A    between atoms: _458  and  _459
REMARK  188  A    between atoms: _458  and  _461
REMARK  189  A    between atoms: _461  and  _462
REMARK  190  A    between atoms: _465  and  _467
REMARK  191  A    between atoms: _467  and  _468
REMARK  192  A    between atoms: _470  and  _472
REMARK  193  A    between atoms: _472  and  _473
REMARK  194  A    between atoms: _472  and  _475
REMARK  195  A    between atoms: _475  and  _476
REMARK  196  A    between atoms: _476  and  _477
REMARK  197  A    between atoms: _477  and  _478
REMARK  198  A    between atoms: _487  and  _489
REMARK  199  A    between atoms: _489  and  _490
REMARK  200  A    between atoms: _489  and  _492
REMARK  201  A    between atoms: _492  and  _493
REMARK                            x       y       z     vdW  Elec       q    Type
REMARK                         _______ _______ _______ _____ _____    ______ ____
ROOT
ATOM      1  O   HOH     1       7.032  16.571   3.468  0.00  0.00    +0.000 OA
ENDROOT
TORSDOF 0
REMARK  Name = ../refined-set-2016/1hpo/1hpo_pocket.pdb
REMARK  201 active torsions:
REMARK  status: ('A' for Active; 'I' for Inactive)
REMARK    1  A    between atoms: _1  and  _3
REMARK    2  A    between atoms: _3  and  _4
REMARK    3  A    between atoms: _3  and  _6
REMARK    4  A    between atoms: _6  and  _7
REMARK    5  A    between atoms: _7  and  _8
REMARK    6  A    between atoms: _8  and  _9
REMARK    7  A    between atoms: _19  and  _20
REMARK    8  A    between atoms: _25  and  _27
REMARK    9  A    between atoms: _27  and  _28
REMARK   10  A    between atoms: _27  and  _30
REMARK   11  A    between atoms: _30  and  _31
REMARK   12  A    between atoms: _34  and  _36
REMARK   13  A    between atoms: _36  and  _37
REMARK   14  A    between atoms: _36  and  _39
REMARK   15  A    between atoms: _39  and  _40
REMARK   16  A    between atoms: _40  and  _41
REMARK   17  A    between atoms: _44  and  _46
REMARK   18  A    between atoms: _46  and  _47
REMARK   19  A    between atoms: _50  and  _52
REMARK   20  A    between atoms: _52  and  _53
REMARK   21  A    between atoms: _52  and  _55
REMARK   22  A    between atoms: _55  and  _56
REMARK   23  A    between atoms: _59  and  _61
REMARK   24  A    between atoms: _61  and  _62
REMARK   25  A    between atoms: _61  and  _64
REMARK   26  A    between atoms: _64  and  _65
REMARK   27  A    between atoms: _68  and  _70
REMARK   28  A    between atoms: _70  and  _71
REMARK   29  A    between atoms: _70  and  _73
REMARK   30  A    between atoms: _73  and  _74
REMARK   31  A    between atoms: _77  and  _79
REMARK   32  A    between atoms: _79  and  _80
REMARK   33  A    between atoms: _79  and  _82
REMARK   34  A    between atoms: _82  and  _83
REMARK   35  A    between atoms: _86  and  _88
REMARK   36  A    between atoms: _88  and  _89
REMARK   37  A    between atoms: _91  and  _93
REMARK   38  A    between atoms: _93  and  _94
REMARK   39  A    between atoms: _97  and  _99
REMARK   40  A    between atoms: _99  and  _100
REMARK   41  A    between atoms: _99  and  _102
REMARK   42  A    between atoms: _102  and  _103
REMARK   43  A    between atoms: _106  and  _108
REMARK   44  A    between atoms: _108  and  _109
REMARK   45  A    between atoms: _108  and  _111
REMARK   46  A    between atoms: _111  and  _112
REMARK   47  A    between atoms: _115  and  _117
REMARK   48  A    between atoms: _117  and  _118
REMARK   49  A    between atoms: _117  and  _120
REMARK   50  A    between atoms: _120  and  _121
REMARK   51  A    between atoms: _124  and  _126
REMARK   52  A    between atoms: _126  and  _127
REMARK   53  A    between atoms: _129  and  _131
REMARK   54  A    between atoms: _131  and  _132
REMARK   55  A    between atoms: _134  and  _136
REMARK   56  A    between atoms: _136  and  _137
REMARK   57  A    between atoms: _136  and  _139
REMARK   58  A    between atoms: _139  and  _140
REMARK   59  A    between atoms: _143  and  _145
REMARK   60  A    between atoms: _145  and  _146
REMARK   61  A    between atoms: _148  and  _150
REMARK   62  A    between atoms: _150  and  _151
REMARK   63  A    between atoms: _153  and  _155
REMARK   64  A    between atoms: _155  and  _156
REMARK   65  A    between atoms: _155  and  _158
REMARK   66  A    between atoms: _158  and  _159
REMARK   67  A    between atoms: _163  and  _164
REMARK   68  A    between atoms: _169  and  _171
REMARK   69  A    between atoms: _171  and  _172
REMARK   70  A    between atoms: _171  and  _174
REMARK   71  A    between atoms: _177  and  _179
REMARK   72  A    between atoms: _179  and  _180
REMARK   73  A    between atoms: _179  and  _182
REMARK   74  A    between atoms: _182  and  _183
REMARK   75  A    between atoms: _188  and  _190
REMARK   76  A    between atoms: _190  and  _191
REMARK   77  A    between atoms: _190  and  _193
REMARK   78  A    between atoms: _193  and  _194
REMARK   79  A    between atoms: _197  and  _199
REMARK   80  A    between atoms: _199  and  _200
REMARK   81  A    between atoms: _199  and  _202
REMARK   82  A    between atoms: _202  and  _203
REMARK   83  A    between atoms: _206  and  _208
REMARK   84  A    between atoms: _208  and  _209
REMARK   85  A    between atoms: _208  and  _211
REMARK   86  A    between atoms: _211  and  _212
REMARK   87  A    between atoms: _212  and  _213
REMARK   88  A    between atoms: _213  and  _214
REMARK   89  A    between atoms: _223  and  _225
REMARK   90  A    between atoms: _225  and  _226
REMARK   91  A    between atoms: _225  and  _228
REMARK   92  A    between atoms: _228  and  _229
REMARK   93  A    between atoms: _229  and  _230
REMARK   94  A    between atoms: _230  and  _231
REMARK   95  A    between atoms: _240  and  _242
REMARK   96  A    between atoms: _242  and  _243
REMARK   97  A    between atoms: _242  and  _245
REMARK   98  A    between atoms: _245  and  _246
REMARK   99  A    between atoms: _249  and  _251
REMARK  100  A    between atoms: _251  and  _252
REMARK  101  A    between atoms: _251  and  _254
REMARK  102  A    between atoms: _254  and  _255
REMARK  103  A    between atoms: _258  and  _260
REMARK  104  A    between atoms: _260  and  _261
REMARK  105  A    between atoms: _260  and  _263
REMARK  106  A    between atoms: _263  and  _264
REMARK  107  A    between atoms: _267  and  _269
REMARK  108  A    between atoms: _269  and  _270
REMARK  109  A    between atoms: _269  and  _272
REMARK  110  A    between atoms: _272  and  _273
REMARK  111  A    between atoms: _276  and  _278
REMARK  112  A    between atoms: _278  and  _279
REMARK  113  A    between atoms: _281  and  _283
REMARK  114  A    between atoms: _283  and  _284
REMARK  115  A    between atoms: _287  and  _289
REMARK  116  A    between atoms: _289  and  _290
REMARK  117  A    between atoms: _289  and  _292
REMARK  118  A    between atoms: _292  and  _293
REMARK  119  A    between atoms: _296  and  _298
REMARK  120  A    between atoms: _298  and  _299
REMARK  121  A    between atoms: _298  and  _301
REMARK  122  A    between atoms: _301  and  _302
REMARK  123  A    between atoms: _305  and  _307
REMARK  124  A    between atoms: _307  and  _308
REMARK  125  A    between atoms: _307  and  _310
REMARK  126  A    between atoms: _310  and  _311
REMARK  127  A    between atoms: _314  and  _316
REMARK  128  A    between atoms: _316  and  _317
REMARK  129  A    between atoms: _316  and  _319
REMARK  130  A    between atoms: _322  and  _324
REMARK  131  A    between atoms: _324  and  _325
REMARK  132  A    between atoms: _324  and  _327
REMARK  133  A    between atoms: _327  and  _328
REMARK  134  A    between atoms: _328  and  _329
REMARK  135  A    between atoms: _329  and  _330
REMARK  136  A    between atoms: _330  and  _331
REMARK  137  A    between atoms: _335  and  _337
REMARK  138  A    between atoms: _337  and  _338
REMARK  139  A    between atoms: _337  and  _340
REMARK  140  A    between atoms: _340  and  _341
REMARK  141  A    between atoms: _341  and  _342
REMARK  142  A    between atoms: _344  and  _346
REMARK  143  A    between atoms: _346  and  _347
REMARK  144  A    between atoms: _346  and  _349
REMARK  145  A    between atoms: _349  and  _350
REMARK  146  A    between atoms: _353  and  _355
REMARK  147  A    between atoms: _355  and  _356
REMARK  148  A    between atoms: _358  and  _360
REMARK  149  A    between atoms: _360  and  _361
REMARK  150  A    between atoms: _363  and  _365
REMARK  151  A    between atoms: _365  and  _366
REMARK  152  A    between atoms: _365  and  _368
REMARK  153  A    between atoms: _368  and  _369
REMARK  154  A    between atoms: _372  and  _374
REMARK  155  A    between atoms: _374  and  _375
REMARK  156  A    between atoms: _377  and  _379
REMARK  157  A    between atoms: _379  and  _380
REMARK  158  A    between atoms: _382  and  _384
REMARK  159  A    between atoms: _384  and  _385
REMARK  160  A    between atoms: _384  and  _387
REMARK  161  A    between atoms: _387  and  _388
REMARK  162  A    between atoms: _394  and  _396
REMARK  163  A    between atoms: _396  and  _397
REMARK  164  A    between atoms: _396  and  _399
REMARK  165  A    between atoms: _399  and  _400
REMARK  166  A    between atoms: _403  and  _405
REMARK  167  A    between atoms: _405  and  _406
REMARK  168  A    between atoms: _405  and  _408
REMARK  169  A    between atoms: _408  and  _409
REMARK  170  A    between atoms: _412  and  _414
REMARK  171  A    between atoms: _414  and  _415
REMARK  172  A    between atoms: _414  and  _417
REMARK  173  A    between atoms: _417  and  _418
REMARK  174  A    between atoms: _422  and  _423
REMARK  175  A    between atoms: _428  and  _430
REMARK  176  A    between atoms: _430  and  _431
REMARK  177  A    between atoms: _430  and  _433
REMARK  178  A    between atoms: _436  and  _438
REMARK  179  A    between atoms: _438  and  _439
REMARK  180  A    between atoms: _438  and  _441
REMARK  181  A    between atoms: _441  and  _442
REMARK  182  A    between atoms: _447  and  _449
REMARK  183  A    between atoms: _449  and  _450
REMARK  184  A    between atoms: _449  and  _452
REMARK  185  A    between atoms: _452  and  _453
REMARK  186  A    between atoms: _456  and  _458
REMARK  187  A    between atoms: _458  and  _459
REMARK  188  A    between atoms: _458  and  _461
REMARK  189  A    between atoms: _461  and  _462
REMARK  190  A    between atoms: _465  and  _467
REMARK  191  A    between atoms: _467  and  _468
REMARK  192  A    between atoms: _470  and  _472
REMARK  193  A    between atoms: _472  and  _473
REMARK  194  A    between atoms: _472  and  _475
REMARK  195  A    between atoms: _475  and  _476
REMARK  196  A    between atoms: _476  and  _477
REMARK  197  A    between atoms: _477  and  _478
REMARK  198  A    between atoms: _487  and  _489
REMARK  199  A    between atoms: _489  and  _490
REMARK  200  A    between atoms: _489  and  _492
REMARK  201  A    between atoms: _492  and  _493
REMARK                            x       y       z     vdW  Elec       q    Type
REMARK                         _______ _______ _______ _____ _____    ______ ____
ROOT
ATOM      1  O   HOH     1      10.386  31.676   1.171  0.00  0.00    +0.000 OA
ENDROOT
TORSDOF 0
REMARK  Name = ../refined-set-2016/1hpo/1hpo_pocket.pdb
REMARK  201 active torsions:
REMARK  status: ('A' for Active; 'I' for Inactive)
REMARK    1  A    between atoms: _1  and  _3
REMARK    2  A    between atoms: _3  and  _4
REMARK    3  A    between atoms: _3  and  _6
REMARK    4  A    between atoms: _6  and  _7
REMARK    5  A    between atoms: _7  and  _8
REMARK    6  A    between atoms: _8  and  _9
REMARK    7  A    between atoms: _19  and  _20
REMARK    8  A    between atoms: _25  and  _27
REMARK    9  A    between atoms: _27  and  _28
REMARK   10  A    between atoms: _27  and  _30
REMARK   11  A    between atoms: _30  and  _31
REMARK   12  A    between atoms: _34  and  _36
REMARK   13  A    between atoms: _36  and  _37
REMARK   14  A    between atoms: _36  and  _39
REMARK   15  A    between atoms: _39  and  _40
REMARK   16  A    between atoms: _40  and  _41
REMARK   17  A    between atoms: _44  and  _46
REMARK   18  A    between atoms: _46  and  _47
REMARK   19  A    between atoms: _50  and  _52
REMARK   20  A    between atoms: _52  and  _53
REMARK   21  A    between atoms: _52  and  _55
REMARK   22  A    between atoms: _55  and  _56
REMARK   23  A    between atoms: _59  and  _61
REMARK   24  A    between atoms: _61  and  _62
REMARK   25  A    between atoms: _61  and  _64
REMARK   26  A    between atoms: _64  and  _65
REMARK   27  A    between atoms: _68  and  _70
REMARK   28  A    between atoms: _70  and  _71
REMARK   29  A    between atoms: _70  and  _73
REMARK   30  A    between atoms: _73  and  _74
REMARK   31  A    between atoms: _77  and  _79
REMARK   32  A    between atoms: _79  and  _80
REMARK   33  A    between atoms: _79  and  _82
REMARK   34  A    between atoms: _82  and  _83
REMARK   35  A    between atoms: _86  and  _88
REMARK   36  A    between atoms: _88  and  _89
REMARK   37  A    between atoms: _91  and  _93
REMARK   38  A    between atoms: _93  and  _94
REMARK   39  A    between atoms: _97  and  _99
REMARK   40  A    between atoms: _99  and  _100
REMARK   41  A    between atoms: _99  and  _102
REMARK   42  A    between atoms: _102  and  _103
REMARK   43  A    between atoms: _106  and  _108
REMARK   44  A    between atoms: _108  and  _109
REMARK   45  A    between atoms: _108  and  _111
REMARK   46  A    between atoms: _111  and  _112
REMARK   47  A    between atoms: _115  and  _117
REMARK   48  A    between atoms: _117  and  _118
REMARK   49  A    between atoms: _117  and  _120
REMARK   50  A    between atoms: _120  and  _121
REMARK   51  A    between atoms: _124  and  _126
REMARK   52  A    between atoms: _126  and  _127
REMARK   53  A    between atoms: _129  and  _131
REMARK   54  A    between atoms: _131  and  _132
REMARK   55  A    between atoms: _134  and  _136
REMARK   56  A    between atoms: _136  and  _137
REMARK   57  A    between atoms: _136  and  _139
REMARK   58  A    between atoms: _139  and  _140
REMARK   59  A    between atoms: _143  and  _145
REMARK   60  A    between atoms: _145  and  _146
REMARK   61  A    between atoms: _148  and  _150
REMARK   62  A    between atoms: _150  and  _151
REMARK   63  A    between atoms: _153  and  _155
REMARK   64  A    between atoms: _155  and  _156
REMARK   65  A    between atoms: _155  and  _158
REMARK   66  A    between atoms: _158  and  _159
REMARK   67  A    between atoms: _163  and  _164
REMARK   68  A    between atoms: _169  and  _171
REMARK   69  A    between atoms: _171  and  _172
REMARK   70  A    between atoms: _171  and  _174
REMARK   71  A    between atoms: _177  and  _179
REMARK   72  A    between atoms: _179  and  _180
REMARK   73  A    between atoms: _179  and  _182
REMARK   74  A    between atoms: _182  and  _183
REMARK   75  A    between atoms: _188  and  _190
REMARK   76  A    between atoms: _190  and  _191
REMARK   77  A    between atoms: _190  and  _193
REMARK   78  A    between atoms: _193  and  _194
REMARK   79  A    between atoms: _197  and  _199
REMARK   80  A    between atoms: _199  and  _200
REMARK   81  A    between atoms: _199  and  _202
REMARK   82  A    between atoms: _202  and  _203
REMARK   83  A    between atoms: _206  and  _208
REMARK   84  A    between atoms: _208  and  _209
REMARK   85  A    between atoms: _208  and  _211
REMARK   86  A    between atoms: _211  and  _212
REMARK   87  A    between atoms: _212  and  _213
REMARK   88  A    between atoms: _213  and  _214
REMARK   89  A    between atoms: _223  and  _225
REMARK   90  A    between atoms: _225  and  _226
REMARK   91  A    between atoms: _225  and  _228
REMARK   92  A    between atoms: _228  and  _229
REMARK   93  A    between atoms: _229  and  _230
REMARK   94  A    between atoms: _230  and  _231
REMARK   95  A    between atoms: _240  and  _242
REMARK   96  A    between atoms: _242  and  _243
REMARK   97  A    between atoms: _242  and  _245
REMARK   98  A    between atoms: _245  and  _246
REMARK   99  A    between atoms: _249  and  _251
REMARK  100  A    between atoms: _251  and  _252
REMARK  101  A    between atoms: _251  and  _254
REMARK  102  A    between atoms: _254  and  _255
REMARK  103  A    between atoms: _258  and  _260
REMARK  104  A    between atoms: _260  and  _261
REMARK  105  A    between atoms: _260  and  _263
REMARK  106  A    between atoms: _263  and  _264
REMARK  107  A    between atoms: _267  and  _269
REMARK  108  A    between atoms: _269  and  _270
REMARK  109  A    between atoms: _269  and  _272
REMARK  110  A    between atoms: _272  and  _273
REMARK  111  A    between atoms: _276  and  _278
REMARK  112  A    between atoms: _278  and  _279
REMARK  113  A    between atoms: _281  and  _283
REMARK  114  A    between atoms: _283  and  _284
REMARK  115  A    between atoms: _287  and  _289
REMARK  116  A    between atoms: _289  and  _290
REMARK  117  A    between atoms: _289  and  _292
REMARK  118  A    between atoms: _292  and  _293
REMARK  119  A    between atoms: _296  and  _298
REMARK  120  A    between atoms: _298  and  _299
REMARK  121  A    between atoms: _298  and  _301
REMARK  122  A    between atoms: _301  and  _302
REMARK  123  A    between atoms: _305  and  _307
REMARK  124  A    between atoms: _307  and  _308
REMARK  125  A    between atoms: _307  and  _310
REMARK  126  A    between atoms: _310  and  _311
REMARK  127  A    between atoms: _314  and  _316
REMARK  128  A    between atoms: _316  and  _317
REMARK  129  A    between atoms: _316  and  _319
REMARK  130  A    between atoms: _322  and  _324
REMARK  131  A    between atoms: _324  and  _325
REMARK  132  A    between atoms: _324  and  _327
REMARK  133  A    between atoms: _327  and  _328
REMARK  134  A    between atoms: _328  and  _329
REMARK  135  A    between atoms: _329  and  _330
REMARK  136  A    between atoms: _330  and  _331
REMARK  137  A    between atoms: _335  and  _337
REMARK  138  A    between atoms: _337  and  _338
REMARK  139  A    between atoms: _337  and  _340
REMARK  140  A    between atoms: _340  and  _341
REMARK  141  A    between atoms: _341  and  _342
REMARK  142  A    between atoms: _344  and  _346
REMARK  143  A    between atoms: _346  and  _347
REMARK  144  A    between atoms: _346  and  _349
REMARK  145  A    between atoms: _349  and  _350
REMARK  146  A    between atoms: _353  and  _355
REMARK  147  A    between atoms: _355  and  _356
REMARK  148  A    between atoms: _358  and  _360
REMARK  149  A    between atoms: _360  and  _361
REMARK  150  A    between atoms: _363  and  _365
REMARK  151  A    between atoms: _365  and  _366
REMARK  152  A    between atoms: _365  and  _368
REMARK  153  A    between atoms: _368  and  _369
REMARK  154  A    between atoms: _372  and  _374
REMARK  155  A    between atoms: _374  and  _375
REMARK  156  A    between atoms: _377  and  _379
REMARK  157  A    between atoms: _379  and  _380
REMARK  158  A    between atoms: _382  and  _384
REMARK  159  A    between atoms: _384  and  _385
REMARK  160  A    between atoms: _384  and  _387
REMARK  161  A    between atoms: _387  and  _388
REMARK  162  A    between atoms: _394  and  _396
REMARK  163  A    between atoms: _396  and  _397
REMARK  164  A    between atoms: _396  and  _399
REMARK  165  A    between atoms: _399  and  _400
REMARK  166  A    between atoms: _403  and  _405
REMARK  167  A    between atoms: _405  and  _406
REMARK  168  A    between atoms: _405  and  _408
REMARK  169  A    between atoms: _408  and  _409
REMARK  170  A    between atoms: _412  and  _414
REMARK  171  A    between atoms: _414  and  _415
REMARK  172  A    between atoms: _414  and  _417
REMARK  173  A    between atoms: _417  and  _418
REMARK  174  A    between atoms: _422  and  _423
REMARK  175  A    between atoms: _428  and  _430
REMARK  176  A    between atoms: _430  and  _431
REMARK  177  A    between atoms: _430  and  _433
REMARK  178  A    between atoms: _436  and  _438
REMARK  179  A    between atoms: _438  and  _439
REMARK  180  A    between atoms: _438  and  _441
REMARK  181  A    between atoms: _441  and  _442
REMARK  182  A    between atoms: _447  and  _449
REMARK  183  A    between atoms: _449  and  _450
REMARK  184  A    between atoms: _449  and  _452
REMARK  185  A    between atoms: _452  and  _453
REMARK  186  A    between atoms: _456  and  _458
REMARK  187  A    between atoms: _458  and  _459
REMARK  188  A    between atoms: _458  and  _461
REMARK  189  A    between atoms: _461  and  _462
REMARK  190  A    between atoms: _465  and  _467
REMARK  191  A    between atoms: _467  and  _468
REMARK  192  A    between atoms: _470  and  _472
REMARK  193  A    between atoms: _472  and  _473
REMARK  194  A    between atoms: _472  and  _475
REMARK  195  A    between atoms: _475  and  _476
REMARK  196  A    between atoms: _476  and  _477
REMARK  197  A    between atoms: _477  and  _478
REMARK  198  A    between atoms: _487  and  _489
REMARK  199  A    between atoms: _489  and  _490
REMARK  200  A    between atoms: _489  and  _492
REMARK  201  A    between atoms: _492  and  _493
REMARK                            x       y       z     vdW  Elec       q    Type
REMARK                         _______ _______ _______ _____ _____    ______ ____
ROOT
ATOM      1  O   HOH     1       2.329  26.772   6.673  0.00  0.00    +0.000 OA
ENDROOT
TORSDOF 0
REMARK  Name = ../refined-set-2016/1hpo/1hpo_pocket.pdb
REMARK  201 active torsions:
REMARK  status: ('A' for Active; 'I' for Inactive)
REMARK    1  A    between atoms: _1  and  _3
REMARK    2  A    between atoms: _3  and  _4
REMARK    3  A    between atoms: _3  and  _6
REMARK    4  A    between atoms: _6  and  _7
REMARK    5  A    between atoms: _7  and  _8
REMARK    6  A    between atoms: _8  and  _9
REMARK    7  A    between atoms: _19  and  _20
REMARK    8  A    between atoms: _25  and  _27
REMARK    9  A    between atoms: _27  and  _28
REMARK   10  A    between atoms: _27  and  _30
REMARK   11  A    between atoms: _30  and  _31
REMARK   12  A    between atoms: _34  and  _36
REMARK   13  A    between atoms: _36  and  _37
REMARK   14  A    between atoms: _36  and  _39
REMARK   15  A    between atoms: _39  and  _40
REMARK   16  A    between atoms: _40  and  _41
REMARK   17  A    between atoms: _44  and  _46
REMARK   18  A    between atoms: _46  and  _47
REMARK   19  A    between atoms: _50  and  _52
REMARK   20  A    between atoms: _52  and  _53
REMARK   21  A    between atoms: _52  and  _55
REMARK   22  A    between atoms: _55  and  _56
REMARK   23  A    between atoms: _59  and  _61
REMARK   24  A    between atoms: _61  and  _62
REMARK   25  A    between atoms: _61  and  _64
REMARK   26  A    between atoms: _64  and  _65
REMARK   27  A    between atoms: _68  and  _70
REMARK   28  A    between atoms: _70  and  _71
REMARK   29  A    between atoms: _70  and  _73
REMARK   30  A    between atoms: _73  and  _74
REMARK   31  A    between atoms: _77  and  _79
REMARK   32  A    between atoms: _79  and  _80
REMARK   33  A    between atoms: _79  and  _82
REMARK   34  A    between atoms: _82  and  _83
REMARK   35  A    between atoms: _86  and  _88
REMARK   36  A    between atoms: _88  and  _89
REMARK   37  A    between atoms: _91  and  _93
REMARK   38  A    between atoms: _93  and  _94
REMARK   39  A    between atoms: _97  and  _99
REMARK   40  A    between atoms: _99  and  _100
REMARK   41  A    between atoms: _99  and  _102
REMARK   42  A    between atoms: _102  and  _103
REMARK   43  A    between atoms: _106  and  _108
REMARK   44  A    between atoms: _108  and  _109
REMARK   45  A    between atoms: _108  and  _111
REMARK   46  A    between atoms: _111  and  _112
REMARK   47  A    between atoms: _115  and  _117
REMARK   48  A    between atoms: _117  and  _118
REMARK   49  A    between atoms: _117  and  _120
REMARK   50  A    between atoms: _120  and  _121
REMARK   51  A    between atoms: _124  and  _126
REMARK   52  A    between atoms: _126  and  _127
REMARK   53  A    between atoms: _129  and  _131
REMARK   54  A    between atoms: _131  and  _132
REMARK   55  A    between atoms: _134  and  _136
REMARK   56  A    between atoms: _136  and  _137
REMARK   57  A    between atoms: _136  and  _139
REMARK   58  A    between atoms: _139  and  _140
REMARK   59  A    between atoms: _143  and  _145
REMARK   60  A    between atoms: _145  and  _146
REMARK   61  A    between atoms: _148  and  _150
REMARK   62  A    between atoms: _150  and  _151
REMARK   63  A    between atoms: _153  and  _155
REMARK   64  A    between atoms: _155  and  _156
REMARK   65  A    between atoms: _155  and  _158
REMARK   66  A    between atoms: _158  and  _159
REMARK   67  A    between atoms: _163  and  _164
REMARK   68  A    between atoms: _169  and  _171
REMARK   69  A    between atoms: _171  and  _172
REMARK   70  A    between atoms: _171  and  _174
REMARK   71  A    between atoms: _177  and  _179
REMARK   72  A    between atoms: _179  and  _180
REMARK   73  A    between atoms: _179  and  _182
REMARK   74  A    between atoms: _182  and  _183
REMARK   75  A    between atoms: _188  and  _190
REMARK   76  A    between atoms: _190  and  _191
REMARK   77  A    between atoms: _190  and  _193
REMARK   78  A    between atoms: _193  and  _194
REMARK   79  A    between atoms: _197  and  _199
REMARK   80  A    between atoms: _199  and  _200
REMARK   81  A    between atoms: _199  and  _202
REMARK   82  A    between atoms: _202  and  _203
REMARK   83  A    between atoms: _206  and  _208
REMARK   84  A    between atoms: _208  and  _209
REMARK   85  A    between atoms: _208  and  _211
REMARK   86  A    between atoms: _211  and  _212
REMARK   87  A    between atoms: _212  and  _213
REMARK   88  A    between atoms: _213  and  _214
REMARK   89  A    between atoms: _223  and  _225
REMARK   90  A    between atoms: _225  and  _226
REMARK   91  A    between atoms: _225  and  _228
REMARK   92  A    between atoms: _228  and  _229
REMARK   93  A    between atoms: _229  and  _230
REMARK   94  A    between atoms: _230  and  _231
REMARK   95  A    between atoms: _240  and  _242
REMARK   96  A    between atoms: _242  and  _243
REMARK   97  A    between atoms: _242  and  _245
REMARK   98  A    between atoms: _245  and  _246
REMARK   99  A    between atoms: _249  and  _251
REMARK  100  A    between atoms: _251  and  _252
REMARK  101  A    between atoms: _251  and  _254
REMARK  102  A    between atoms: _254  and  _255
REMARK  103  A    between atoms: _258  and  _260
REMARK  104  A    between atoms: _260  and  _261
REMARK  105  A    between atoms: _260  and  _263
REMARK  106  A    between atoms: _263  and  _264
REMARK  107  A    between atoms: _267  and  _269
REMARK  108  A    between atoms: _269  and  _270
REMARK  109  A    between atoms: _269  and  _272
REMARK  110  A    between atoms: _272  and  _273
REMARK  111  A    between atoms: _276  and  _278
REMARK  112  A    between atoms: _278  and  _279
REMARK  113  A    between atoms: _281  and  _283
REMARK  114  A    between atoms: _283  and  _284
REMARK  115  A    between atoms: _287  and  _289
REMARK  116  A    between atoms: _289  and  _290
REMARK  117  A    between atoms: _289  and  _292
REMARK  118  A    between atoms: _292  and  _293
REMARK  119  A    between atoms: _296  and  _298
REMARK  120  A    between atoms: _298  and  _299
REMARK  121  A    between atoms: _298  and  _301
REMARK  122  A    between atoms: _301  and  _302
REMARK  123  A    between atoms: _305  and  _307
REMARK  124  A    between atoms: _307  and  _308
REMARK  125  A    between atoms: _307  and  _310
REMARK  126  A    between atoms: _310  and  _311
REMARK  127  A    between atoms: _314  and  _316
REMARK  128  A    between atoms: _316  and  _317
REMARK  129  A    between atoms: _316  and  _319
REMARK  130  A    between atoms: _322  and  _324
REMARK  131  A    between atoms: _324  and  _325
REMARK  132  A    between atoms: _324  and  _327
REMARK  133  A    between atoms: _327  and  _328
REMARK  134  A    between atoms: _328  and  _329
REMARK  135  A    between atoms: _329  and  _330
REMARK  136  A    between atoms: _330  and  _331
REMARK  137  A    between atoms: _335  and  _337
REMARK  138  A    between atoms: _337  and  _338
REMARK  139  A    between atoms: _337  and  _340
REMARK  140  A    between atoms: _340  and  _341
REMARK  141  A    between atoms: _341  and  _342
REMARK  142  A    between atoms: _344  and  _346
REMARK  143  A    between atoms: _346  and  _347
REMARK  144  A    between atoms: _346  and  _349
REMARK  145  A    between atoms: _349  and  _350
REMARK  146  A    between atoms: _353  and  _355
REMARK  147  A    between atoms: _355  and  _356
REMARK  148  A    between atoms: _358  and  _360
REMARK  149  A    between atoms: _360  and  _361
REMARK  150  A    between atoms: _363  and  _365
REMARK  151  A    between atoms: _365  and  _366
REMARK  152  A    between atoms: _365  and  _368
REMARK  153  A    between atoms: _368  and  _369
REMARK  154  A    between atoms: _372  and  _374
REMARK  155  A    between atoms: _374  and  _375
REMARK  156  A    between atoms: _377  and  _379
REMARK  157  A    between atoms: _379  and  _380
REMARK  158  A    between atoms: _382  and  _384
REMARK  159  A    between atoms: _384  and  _385
REMARK  160  A    between atoms: _384  and  _387
REMARK  161  A    between atoms: _387  and  _388
REMARK  162  A    between atoms: _394  and  _396
REMARK  163  A    between atoms: _396  and  _397
REMARK  164  A    between atoms: _396  and  _399
REMARK  165  A    between atoms: _399  and  _400
REMARK  166  A    between atoms: _403  and  _405
REMARK  167  A    between atoms: _405  and  _406
REMARK  168  A    between atoms: _405  and  _408
REMARK  169  A    between atoms: _408  and  _409
REMARK  170  A    between atoms: _412  and  _414
REMARK  171  A    between atoms: _414  and  _415
REMARK  172  A    between atoms: _414  and  _417
REMARK  173  A    between atoms: _417  and  _418
REMARK  174  A    between atoms: _422  and  _423
REMARK  175  A    between atoms: _428  and  _430
REMARK  176  A    between atoms: _430  and  _431
REMARK  177  A    between atoms: _430  and  _433
REMARK  178  A    between atoms: _436  and  _438
REMARK  179  A    between atoms: _438  and  _439
REMARK  180  A    between atoms: _438  and  _441
REMARK  181  A    between atoms: _441  and  _442
REMARK  182  A    between atoms: _447  and  _449
REMARK  183  A    between atoms: _449  and  _450
REMARK  184  A    between atoms: _449  and  _452
REMARK  185  A    between atoms: _452  and  _453
REMARK  186  A    between atoms: _456  and  _458
REMARK  187  A    between atoms: _458  and  _459
REMARK  188  A    between atoms: _458  and  _461
REMARK  189  A    between atoms: _461  and  _462
REMARK  190  A    between atoms: _465  and  _467
REMARK  191  A    between atoms: _467  and  _468
REMARK  192  A    between atoms: _470  and  _472
REMARK  193  A    between atoms: _472  and  _473
REMARK  194  A    between atoms: _472  and  _475
REMARK  195  A    between atoms: _475  and  _476
REMARK  196  A    between atoms: _476  and  _477
REMARK  197  A    between atoms: _477  and  _478
REMARK  198  A    between atoms: _487  and  _489
REMARK  199  A    between atoms: _489  and  _490
REMARK  200  A    between atoms: _489  and  _492
REMARK  201  A    between atoms: _492  and  _493
REMARK                            x       y       z     vdW  Elec       q    Type
REMARK                         _______ _______ _______ _____ _____    ______ ____
ROOT
ATOM      1  O   HOH     1       5.082  29.313   6.168  0.00  0.00    +0.000 OA
ENDROOT
TORSDOF 0
REMARK  Name = ../refined-set-2016/1hpo/1hpo_pocket.pdb
REMARK  201 active torsions:
REMARK  status: ('A' for Active; 'I' for Inactive)
REMARK    1  A    between atoms: _1  and  _3
REMARK    2  A    between atoms: _3  and  _4
REMARK    3  A    between atoms: _3  and  _6
REMARK    4  A    between atoms: _6  and  _7
REMARK    5  A    between atoms: _7  and  _8
REMARK    6  A    between atoms: _8  and  _9
REMARK    7  A    between atoms: _19  and  _20
REMARK    8  A    between atoms: _25  and  _27
REMARK    9  A    between atoms: _27  and  _28
REMARK   10  A    between atoms: _27  and  _30
REMARK   11  A    between atoms: _30  and  _31
REMARK   12  A    between atoms: _34  and  _36
REMARK   13  A    between atoms: _36  and  _37
REMARK   14  A    between atoms: _36  and  _39
REMARK   15  A    between atoms: _39  and  _40
REMARK   16  A    between atoms: _40  and  _41
REMARK   17  A    between atoms: _44  and  _46
REMARK   18  A    between atoms: _46  and  _47
REMARK   19  A    between atoms: _50  and  _52
REMARK   20  A    between atoms: _52  and  _53
REMARK   21  A    between atoms: _52  and  _55
REMARK   22  A    between atoms: _55  and  _56
REMARK   23  A    between atoms: _59  and  _61
REMARK   24  A    between atoms: _61  and  _62
REMARK   25  A    between atoms: _61  and  _64
REMARK   26  A    between atoms: _64  and  _65
REMARK   27  A    between atoms: _68  and  _70
REMARK   28  A    between atoms: _70  and  _71
REMARK   29  A    between atoms: _70  and  _73
REMARK   30  A    between atoms: _73  and  _74
REMARK   31  A    between atoms: _77  and  _79
REMARK   32  A    between atoms: _79  and  _80
REMARK   33  A    between atoms: _79  and  _82
REMARK   34  A    between atoms: _82  and  _83
REMARK   35  A    between atoms: _86  and  _88
REMARK   36  A    between atoms: _88  and  _89
REMARK   37  A    between atoms: _91  and  _93
REMARK   38  A    between atoms: _93  and  _94
REMARK   39  A    between atoms: _97  and  _99
REMARK   40  A    between atoms: _99  and  _100
REMARK   41  A    between atoms: _99  and  _102
REMARK   42  A    between atoms: _102  and  _103
REMARK   43  A    between atoms: _106  and  _108
REMARK   44  A    between atoms: _108  and  _109
REMARK   45  A    between atoms: _108  and  _111
REMARK   46  A    between atoms: _111  and  _112
REMARK   47  A    between atoms: _115  and  _117
REMARK   48  A    between atoms: _117  and  _118
REMARK   49  A    between atoms: _117  and  _120
REMARK   50  A    between atoms: _120  and  _121
REMARK   51  A    between atoms: _124  and  _126
REMARK   52  A    between atoms: _126  and  _127
REMARK   53  A    between atoms: _129  and  _131
REMARK   54  A    between atoms: _131  and  _132
REMARK   55  A    between atoms: _134  and  _136
REMARK   56  A    between atoms: _136  and  _137
REMARK   57  A    between atoms: _136  and  _139
REMARK   58  A    between atoms: _139  and  _140
REMARK   59  A    between atoms: _143  and  _145
REMARK   60  A    between atoms: _145  and  _146
REMARK   61  A    between atoms: _148  and  _150
REMARK   62  A    between atoms: _150  and  _151
REMARK   63  A    between atoms: _153  and  _155
REMARK   64  A    between atoms: _155  and  _156
REMARK   65  A    between atoms: _155  and  _158
REMARK   66  A    between atoms: _158  and  _159
REMARK   67  A    between atoms: _163  and  _164
REMARK   68  A    between atoms: _169  and  _171
REMARK   69  A    between atoms: _171  and  _172
REMARK   70  A    between atoms: _171  and  _174
REMARK   71  A    between atoms: _177  and  _179
REMARK   72  A    between atoms: _179  and  _180
REMARK   73  A    between atoms: _179  and  _182
REMARK   74  A    between atoms: _182  and  _183
REMARK   75  A    between atoms: _188  and  _190
REMARK   76  A    between atoms: _190  and  _191
REMARK   77  A    between atoms: _190  and  _193
REMARK   78  A    between atoms: _193  and  _194
REMARK   79  A    between atoms: _197  and  _199
REMARK   80  A    between atoms: _199  and  _200
REMARK   81  A    between atoms: _199  and  _202
REMARK   82  A    between atoms: _202  and  _203
REMARK   83  A    between atoms: _206  and  _208
REMARK   84  A    between atoms: _208  and  _209
REMARK   85  A    between atoms: _208  and  _211
REMARK   86  A    between atoms: _211  and  _212
REMARK   87  A    between atoms: _212  and  _213
REMARK   88  A    between atoms: _213  and  _214
REMARK   89  A    between atoms: _223  and  _225
REMARK   90  A    between atoms: _225  and  _226
REMARK   91  A    between atoms: _225  and  _228
REMARK   92  A    between atoms: _228  and  _229
REMARK   93  A    between atoms: _229  and  _230
REMARK   94  A    between atoms: _230  and  _231
REMARK   95  A    between atoms: _240  and  _242
REMARK   96  A    between atoms: _242  and  _243
REMARK   97  A    between atoms: _242  and  _245
REMARK   98  A    between atoms: _245  and  _246
REMARK   99  A    between atoms: _249  and  _251
REMARK  100  A    between atoms: _251  and  _252
REMARK  101  A    between atoms: _251  and  _254
REMARK  102  A    between atoms: _254  and  _255
REMARK  103  A    between atoms: _258  and  _260
REMARK  104  A    between atoms: _260  and  _261
REMARK  105  A    between atoms: _260  and  _263
REMARK  106  A    between atoms: _263  and  _264
REMARK  107  A    between atoms: _267  and  _269
REMARK  108  A    between atoms: _269  and  _270
REMARK  109  A    between atoms: _269  and  _272
REMARK  110  A    between atoms: _272  and  _273
REMARK  111  A    between atoms: _276  and  _278
REMARK  112  A    between atoms: _278  and  _279
REMARK  113  A    between atoms: _281  and  _283
REMARK  114  A    between atoms: _283  and  _284
REMARK  115  A    between atoms: _287  and  _289
REMARK  116  A    between atoms: _289  and  _290
REMARK  117  A    between atoms: _289  and  _292
REMARK  118  A    between atoms: _292  and  _293
REMARK  119  A    between atoms: _296  and  _298
REMARK  120  A    between atoms: _298  and  _299
REMARK  121  A    between atoms: _298  and  _301
REMARK  122  A    between atoms: _301  and  _302
REMARK  123  A    between atoms: _305  and  _307
REMARK  124  A    between atoms: _307  and  _308
REMARK  125  A    between atoms: _307  and  _310
REMARK  126  A    between atoms: _310  and  _311
REMARK  127  A    between atoms: _314  and  _316
REMARK  128  A    between atoms: _316  and  _317
REMARK  129  A    between atoms: _316  and  _319
REMARK  130  A    between atoms: _322  and  _324
REMARK  131  A    between atoms: _324  and  _325
REMARK  132  A    between atoms: _324  and  _327
REMARK  133  A    between atoms: _327  and  _328
REMARK  134  A    between atoms: _328  and  _329
REMARK  135  A    between atoms: _329  and  _330
REMARK  136  A    between atoms: _330  and  _331
REMARK  137  A    between atoms: _335  and  _337
REMARK  138  A    between atoms: _337  and  _338
REMARK  139  A    between atoms: _337  and  _340
REMARK  140  A    between atoms: _340  and  _341
REMARK  141  A    between atoms: _341  and  _342
REMARK  142  A    between atoms: _344  and  _346
REMARK  143  A    between atoms: _346  and  _347
REMARK  144  A    between atoms: _346  and  _349
REMARK  145  A    between atoms: _349  and  _350
REMARK  146  A    between atoms: _353  and  _355
REMARK  147  A    between atoms: _355  and  _356
REMARK  148  A    between atoms: _358  and  _360
REMARK  149  A    between atoms: _360  and  _361
REMARK  150  A    between atoms: _363  and  _365
REMARK  151  A    between atoms: _365  and  _366
REMARK  152  A    between atoms: _365  and  _368
REMARK  153  A    between atoms: _368  and  _369
REMARK  154  A    between atoms: _372  and  _374
REMARK  155  A    between atoms: _374  and  _375
REMARK  156  A    between atoms: _377  and  _379
REMARK  157  A    between atoms: _379  and  _380
REMARK  158  A    between atoms: _382  and  _384
REMARK  159  A    between atoms: _384  and  _385
REMARK  160  A    between atoms: _384  and  _387
REMARK  161  A    between atoms: _387  and  _388
REMARK  162  A    between atoms: _394  and  _396
REMARK  163  A    between atoms: _396  and  _397
REMARK  164  A    between atoms: _396  and  _399
REMARK  165  A    between atoms: _399  and  _400
REMARK  166  A    between atoms: _403  and  _405
REMARK  167  A    between atoms: _405  and  _406
REMARK  168  A    between atoms: _405  and  _408
REMARK  169  A    between atoms: _408  and  _409
REMARK  170  A    between atoms: _412  and  _414
REMARK  171  A    between atoms: _414  and  _415
REMARK  172  A    between atoms: _414  and  _417
REMARK  173  A    between atoms: _417  and  _418
REMARK  174  A    between atoms: _422  and  _423
REMARK  175  A    between atoms: _428  and  _430
REMARK  176  A    between atoms: _430  and  _431
REMARK  177  A    between atoms: _430  and  _433
REMARK  178  A    between atoms: _436  and  _438
REMARK  179  A    between atoms: _438  and  _439
REMARK  180  A    between atoms: _438  and  _441
REMARK  181  A    between atoms: _441  and  _442
REMARK  182  A    between atoms: _447  and  _449
REMARK  183  A    between atoms: _449  and  _450
REMARK  184  A    between atoms: _449  and  _452
REMARK  185  A    between atoms: _452  and  _453
REMARK  186  A    between atoms: _456  and  _458
REMARK  187  A    between atoms: _458  and  _459
REMARK  188  A    between atoms: _458  and  _461
REMARK  189  A    between atoms: _461  and  _462
REMARK  190  A    between atoms: _465  and  _467
REMARK  191  A    between atoms: _467  and  _468
REMARK  192  A    between atoms: _470  and  _472
REMARK  193  A    between atoms: _472  and  _473
REMARK  194  A    between atoms: _472  and  _475
REMARK  195  A    between atoms: _475  and  _476
REMARK  196  A    between atoms: _476  and  _477
REMARK  197  A    between atoms: _477  and  _478
REMARK  198  A    between atoms: _487  and  _489
REMARK  199  A    between atoms: _489  and  _490
REMARK  200  A    between atoms: _489  and  _492
REMARK  201  A    between atoms: _492  and  _493
REMARK                            x       y       z     vdW  Elec       q    Type
REMARK                         _______ _______ _______ _____ _____    ______ ____
ROOT
ATOM      1  O   HOH     1       8.527  29.228   6.982  0.00  0.00    +0.000 OA
ENDROOT
TORSDOF 0
REMARK  Name = ../refined-set-2016/1hpo/1hpo_pocket.pdb
REMARK  201 active torsions:
REMARK  status: ('A' for Active; 'I' for Inactive)
REMARK    1  A    between atoms: _1  and  _3
REMARK    2  A    between atoms: _3  and  _4
REMARK    3  A    between atoms: _3  and  _6
REMARK    4  A    between atoms: _6  and  _7
REMARK    5  A    between atoms: _7  and  _8
REMARK    6  A    between atoms: _8  and  _9
REMARK    7  A    between atoms: _19  and  _20
REMARK    8  A    between atoms: _25  and  _27
REMARK    9  A    between atoms: _27  and  _28
REMARK   10  A    between atoms: _27  and  _30
REMARK   11  A    between atoms: _30  and  _31
REMARK   12  A    between atoms: _34  and  _36
REMARK   13  A    between atoms: _36  and  _37
REMARK   14  A    between atoms: _36  and  _39
REMARK   15  A    between atoms: _39  and  _40
REMARK   16  A    between atoms: _40  and  _41
REMARK   17  A    between atoms: _44  and  _46
REMARK   18  A    between atoms: _46  and  _47
REMARK   19  A    between atoms: _50  and  _52
REMARK   20  A    between atoms: _52  and  _53
REMARK   21  A    between atoms: _52  and  _55
REMARK   22  A    between atoms: _55  and  _56
REMARK   23  A    between atoms: _59  and  _61
REMARK   24  A    between atoms: _61  and  _62
REMARK   25  A    between atoms: _61  and  _64
REMARK   26  A    between atoms: _64  and  _65
REMARK   27  A    between atoms: _68  and  _70
REMARK   28  A    between atoms: _70  and  _71
REMARK   29  A    between atoms: _70  and  _73
REMARK   30  A    between atoms: _73  and  _74
REMARK   31  A    between atoms: _77  and  _79
REMARK   32  A    between atoms: _79  and  _80
REMARK   33  A    between atoms: _79  and  _82
REMARK   34  A    between atoms: _82  and  _83
REMARK   35  A    between atoms: _86  and  _88
REMARK   36  A    between atoms: _88  and  _89
REMARK   37  A    between atoms: _91  and  _93
REMARK   38  A    between atoms: _93  and  _94
REMARK   39  A    between atoms: _97  and  _99
REMARK   40  A    between atoms: _99  and  _100
REMARK   41  A    between atoms: _99  and  _102
REMARK   42  A    between atoms: _102  and  _103
REMARK   43  A    between atoms: _106  and  _108
REMARK   44  A    between atoms: _108  and  _109
REMARK   45  A    between atoms: _108  and  _111
REMARK   46  A    between atoms: _111  and  _112
REMARK   47  A    between atoms: _115  and  _117
REMARK   48  A    between atoms: _117  and  _118
REMARK   49  A    between atoms: _117  and  _120
REMARK   50  A    between atoms: _120  and  _121
REMARK   51  A    between atoms: _124  and  _126
REMARK   52  A    between atoms: _126  and  _127
REMARK   53  A    between atoms: _129  and  _131
REMARK   54  A    between atoms: _131  and  _132
REMARK   55  A    between atoms: _134  and  _136
REMARK   56  A    between atoms: _136  and  _137
REMARK   57  A    between atoms: _136  and  _139
REMARK   58  A    between atoms: _139  and  _140
REMARK   59  A    between atoms: _143  and  _145
REMARK   60  A    between atoms: _145  and  _146
REMARK   61  A    between atoms: _148  and  _150
REMARK   62  A    between atoms: _150  and  _151
REMARK   63  A    between atoms: _153  and  _155
REMARK   64  A    between atoms: _155  and  _156
REMARK   65  A    between atoms: _155  and  _158
REMARK   66  A    between atoms: _158  and  _159
REMARK   67  A    between atoms: _163  and  _164
REMARK   68  A    between atoms: _169  and  _171
REMARK   69  A    between atoms: _171  and  _172
REMARK   70  A    between atoms: _171  and  _174
REMARK   71  A    between atoms: _177  and  _179
REMARK   72  A    between atoms: _179  and  _180
REMARK   73  A    between atoms: _179  and  _182
REMARK   74  A    between atoms: _182  and  _183
REMARK   75  A    between atoms: _188  and  _190
REMARK   76  A    between atoms: _190  and  _191
REMARK   77  A    between atoms: _190  and  _193
REMARK   78  A    between atoms: _193  and  _194
REMARK   79  A    between atoms: _197  and  _199
REMARK   80  A    between atoms: _199  and  _200
REMARK   81  A    between atoms: _199  and  _202
REMARK   82  A    between atoms: _202  and  _203
REMARK   83  A    between atoms: _206  and  _208
REMARK   84  A    between atoms: _208  and  _209
REMARK   85  A    between atoms: _208  and  _211
REMARK   86  A    between atoms: _211  and  _212
REMARK   87  A    between atoms: _212  and  _213
REMARK   88  A    between atoms: _213  and  _214
REMARK   89  A    between atoms: _223  and  _225
REMARK   90  A    between atoms: _225  and  _226
REMARK   91  A    between atoms: _225  and  _228
REMARK   92  A    between atoms: _228  and  _229
REMARK   93  A    between atoms: _229  and  _230
REMARK   94  A    between atoms: _230  and  _231
REMARK   95  A    between atoms: _240  and  _242
REMARK   96  A    between atoms: _242  and  _243
REMARK   97  A    between atoms: _242  and  _245
REMARK   98  A    between atoms: _245  and  _246
REMARK   99  A    between atoms: _249  and  _251
REMARK  100  A    between atoms: _251  and  _252
REMARK  101  A    between atoms: _251  and  _254
REMARK  102  A    between atoms: _254  and  _255
REMARK  103  A    between atoms: _258  and  _260
REMARK  104  A    between atoms: _260  and  _261
REMARK  105  A    between atoms: _260  and  _263
REMARK  106  A    between atoms: _263  and  _264
REMARK  107  A    between atoms: _267  and  _269
REMARK  108  A    between atoms: _269  and  _270
REMARK  109  A    between atoms: _269  and  _272
REMARK  110  A    between atoms: _272  and  _273
REMARK  111  A    between atoms: _276  and  _278
REMARK  112  A    between atoms: _278  and  _279
REMARK  113  A    between atoms: _281  and  _283
REMARK  114  A    between atoms: _283  and  _284
REMARK  115  A    between atoms: _287  and  _289
REMARK  116  A    between atoms: _289  and  _290
REMARK  117  A    between atoms: _289  and  _292
REMARK  118  A    between atoms: _292  and  _293
REMARK  119  A    between atoms: _296  and  _298
REMARK  120  A    between atoms: _298  and  _299
REMARK  121  A    between atoms: _298  and  _301
REMARK  122  A    between atoms: _301  and  _302
REMARK  123  A    between atoms: _305  and  _307
REMARK  124  A    between atoms: _307  and  _308
REMARK  125  A    between atoms: _307  and  _310
REMARK  126  A    between atoms: _310  and  _311
REMARK  127  A    between atoms: _314  and  _316
REMARK  128  A    between atoms: _316  and  _317
REMARK  129  A    between atoms: _316  and  _319
REMARK  130  A    between atoms: _322  and  _324
REMARK  131  A    between atoms: _324  and  _325
REMARK  132  A    between atoms: _324  and  _327
REMARK  133  A    between atoms: _327  and  _328
REMARK  134  A    between atoms: _328  and  _329
REMARK  135  A    between atoms: _329  and  _330
REMARK  136  A    between atoms: _330  and  _331
REMARK  137  A    between atoms: _335  and  _337
REMARK  138  A    between atoms: _337  and  _338
REMARK  139  A    between atoms: _337  and  _340
REMARK  140  A    between atoms: _340  and  _341
REMARK  141  A    between atoms: _341  and  _342
REMARK  142  A    between atoms: _344  and  _346
REMARK  143  A    between atoms: _346  and  _347
REMARK  144  A    between atoms: _346  and  _349
REMARK  145  A    between atoms: _349  and  _350
REMARK  146  A    between atoms: _353  and  _355
REMARK  147  A    between atoms: _355  and  _356
REMARK  148  A    between atoms: _358  and  _360
REMARK  149  A    between atoms: _360  and  _361
REMARK  150  A    between atoms: _363  and  _365
REMARK  151  A    between atoms: _365  and  _366
REMARK  152  A    between atoms: _365  and  _368
REMARK  153  A    between atoms: _368  and  _369
REMARK  154  A    between atoms: _372  and  _374
REMARK  155  A    between atoms: _374  and  _375
REMARK  156  A    between atoms: _377  and  _379
REMARK  157  A    between atoms: _379  and  _380
REMARK  158  A    between atoms: _382  and  _384
REMARK  159  A    between atoms: _384  and  _385
REMARK  160  A    between atoms: _384  and  _387
REMARK  161  A    between atoms: _387  and  _388
REMARK  162  A    between atoms: _394  and  _396
REMARK  163  A    between atoms: _396  and  _397
REMARK  164  A    between atoms: _396  and  _399
REMARK  165  A    between atoms: _399  and  _400
REMARK  166  A    between atoms: _403  and  _405
REMARK  167  A    between atoms: _405  and  _406
REMARK  168  A    between atoms: _405  and  _408
REMARK  169  A    between atoms: _408  and  _409
REMARK  170  A    between atoms: _412  and  _414
REMARK  171  A    between atoms: _414  and  _415
REMARK  172  A    between atoms: _414  and  _417
REMARK  173  A    between atoms: _417  and  _418
REMARK  174  A    between atoms: _422  and  _423
REMARK  175  A    between atoms: _428  and  _430
REMARK  176  A    between atoms: _430  and  _431
REMARK  177  A    between atoms: _430  and  _433
REMARK  178  A    between atoms: _436  and  _438
REMARK  179  A    between atoms: _438  and  _439
REMARK  180  A    between atoms: _438  and  _441
REMARK  181  A    between atoms: _441  and  _442
REMARK  182  A    between atoms: _447  and  _449
REMARK  183  A    between atoms: _449  and  _450
REMARK  184  A    between atoms: _449  and  _452
REMARK  185  A    between atoms: _452  and  _453
REMARK  186  A    between atoms: _456  and  _458
REMARK  187  A    between atoms: _458  and  _459
REMARK  188  A    between atoms: _458  and  _461
REMARK  189  A    between atoms: _461  and  _462
REMARK  190  A    between atoms: _465  and  _467
REMARK  191  A    between atoms: _467  and  _468
REMARK  192  A    between atoms: _470  and  _472
REMARK  193  A    between atoms: _472  and  _473
REMARK  194  A    between atoms: _472  and  _475
REMARK  195  A    between atoms: _475  and  _476
REMARK  196  A    between atoms: _476  and  _477
REMARK  197  A    between atoms: _477  and  _478
REMARK  198  A    between atoms: _487  and  _489
REMARK  199  A    between atoms: _489  and  _490
REMARK  200  A    between atoms: _489  and  _492
REMARK  201  A    between atoms: _492  and  _493
REMARK                            x       y       z     vdW  Elec       q    Type
REMARK                         _______ _______ _______ _____ _____    ______ ____
ROOT
ATOM      1  O   HOH     1       6.966  27.498   5.871  0.00  0.00    +0.000 OA
ENDROOT
TORSDOF 0
REMARK  Name = ../refined-set-2016/1hpo/1hpo_pocket.pdb
REMARK  201 active torsions:
REMARK  status: ('A' for Active; 'I' for Inactive)
REMARK    1  A    between atoms: _1  and  _3
REMARK    2  A    between atoms: _3  and  _4
REMARK    3  A    between atoms: _3  and  _6
REMARK    4  A    between atoms: _6  and  _7
REMARK    5  A    between atoms: _7  and  _8
REMARK    6  A    between atoms: _8  and  _9
REMARK    7  A    between atoms: _19  and  _20
REMARK    8  A    between atoms: _25  and  _27
REMARK    9  A    between atoms: _27  and  _28
REMARK   10  A    between atoms: _27  and  _30
REMARK   11  A    between atoms: _30  and  _31
REMARK   12  A    between atoms: _34  and  _36
REMARK   13  A    between atoms: _36  and  _37
REMARK   14  A    between atoms: _36  and  _39
REMARK   15  A    between atoms: _39  and  _40
REMARK   16  A    between atoms: _40  and  _41
REMARK   17  A    between atoms: _44  and  _46
REMARK   18  A    between atoms: _46  and  _47
REMARK   19  A    between atoms: _50  and  _52
REMARK   20  A    between atoms: _52  and  _53
REMARK   21  A    between atoms: _52  and  _55
REMARK   22  A    between atoms: _55  and  _56
REMARK   23  A    between atoms: _59  and  _61
REMARK   24  A    between atoms: _61  and  _62
REMARK   25  A    between atoms: _61  and  _64
REMARK   26  A    between atoms: _64  and  _65
REMARK   27  A    between atoms: _68  and  _70
REMARK   28  A    between atoms: _70  and  _71
REMARK   29  A    between atoms: _70  and  _73
REMARK   30  A    between atoms: _73  and  _74
REMARK   31  A    between atoms: _77  and  _79
REMARK   32  A    between atoms: _79  and  _80
REMARK   33  A    between atoms: _79  and  _82
REMARK   34  A    between atoms: _82  and  _83
REMARK   35  A    between atoms: _86  and  _88
REMARK   36  A    between atoms: _88  and  _89
REMARK   37  A    between atoms: _91  and  _93
REMARK   38  A    between atoms: _93  and  _94
REMARK   39  A    between atoms: _97  and  _99
REMARK   40  A    between atoms: _99  and  _100
REMARK   41  A    between atoms: _99  and  _102
REMARK   42  A    between atoms: _102  and  _103
REMARK   43  A    between atoms: _106  and  _108
REMARK   44  A    between atoms: _108  and  _109
REMARK   45  A    between atoms: _108  and  _111
REMARK   46  A    between atoms: _111  and  _112
REMARK   47  A    between atoms: _115  and  _117
REMARK   48  A    between atoms: _117  and  _118
REMARK   49  A    between atoms: _117  and  _120
REMARK   50  A    between atoms: _120  and  _121
REMARK   51  A    between atoms: _124  and  _126
REMARK   52  A    between atoms: _126  and  _127
REMARK   53  A    between atoms: _129  and  _131
REMARK   54  A    between atoms: _131  and  _132
REMARK   55  A    between atoms: _134  and  _136
REMARK   56  A    between atoms: _136  and  _137
REMARK   57  A    between atoms: _136  and  _139
REMARK   58  A    between atoms: _139  and  _140
REMARK   59  A    between atoms: _143  and  _145
REMARK   60  A    between atoms: _145  and  _146
REMARK   61  A    between atoms: _148  and  _150
REMARK   62  A    between atoms: _150  and  _151
REMARK   63  A    between atoms: _153  and  _155
REMARK   64  A    between atoms: _155  and  _156
REMARK   65  A    between atoms: _155  and  _158
REMARK   66  A    between atoms: _158  and  _159
REMARK   67  A    between atoms: _163  and  _164
REMARK   68  A    between atoms: _169  and  _171
REMARK   69  A    between atoms: _171  and  _172
REMARK   70  A    between atoms: _171  and  _174
REMARK   71  A    between atoms: _177  and  _179
REMARK   72  A    between atoms: _179  and  _180
REMARK   73  A    between atoms: _179  and  _182
REMARK   74  A    between atoms: _182  and  _183
REMARK   75  A    between atoms: _188  and  _190
REMARK   76  A    between atoms: _190  and  _191
REMARK   77  A    between atoms: _190  and  _193
REMARK   78  A    between atoms: _193  and  _194
REMARK   79  A    between atoms: _197  and  _199
REMARK   80  A    between atoms: _199  and  _200
REMARK   81  A    between atoms: _199  and  _202
REMARK   82  A    between atoms: _202  and  _203
REMARK   83  A    between atoms: _206  and  _208
REMARK   84  A    between atoms: _208  and  _209
REMARK   85  A    between atoms: _208  and  _211
REMARK   86  A    between atoms: _211  and  _212
REMARK   87  A    between atoms: _212  and  _213
REMARK   88  A    between atoms: _213  and  _214
REMARK   89  A    between atoms: _223  and  _225
REMARK   90  A    between atoms: _225  and  _226
REMARK   91  A    between atoms: _225  and  _228
REMARK   92  A    between atoms: _228  and  _229
REMARK   93  A    between atoms: _229  and  _230
REMARK   94  A    between atoms: _230  and  _231
REMARK   95  A    between atoms: _240  and  _242
REMARK   96  A    between atoms: _242  and  _243
REMARK   97  A    between atoms: _242  and  _245
REMARK   98  A    between atoms: _245  and  _246
REMARK   99  A    between atoms: _249  and  _251
REMARK  100  A    between atoms: _251  and  _252
REMARK  101  A    between atoms: _251  and  _254
REMARK  102  A    between atoms: _254  and  _255
REMARK  103  A    between atoms: _258  and  _260
REMARK  104  A    between atoms: _260  and  _261
REMARK  105  A    between atoms: _260  and  _263
REMARK  106  A    between atoms: _263  and  _264
REMARK  107  A    between atoms: _267  and  _269
REMARK  108  A    between atoms: _269  and  _270
REMARK  109  A    between atoms: _269  and  _272
REMARK  110  A    between atoms: _272  and  _273
REMARK  111  A    between atoms: _276  and  _278
REMARK  112  A    between atoms: _278  and  _279
REMARK  113  A    between atoms: _281  and  _283
REMARK  114  A    between atoms: _283  and  _284
REMARK  115  A    between atoms: _287  and  _289
REMARK  116  A    between atoms: _289  and  _290
REMARK  117  A    between atoms: _289  and  _292
REMARK  118  A    between atoms: _292  and  _293
REMARK  119  A    between atoms: _296  and  _298
REMARK  120  A    between atoms: _298  and  _299
REMARK  121  A    between atoms: _298  and  _301
REMARK  122  A    between atoms: _301  and  _302
REMARK  123  A    between atoms: _305  and  _307
REMARK  124  A    between atoms: _307  and  _308
REMARK  125  A    between atoms: _307  and  _310
REMARK  126  A    between atoms: _310  and  _311
REMARK  127  A    between atoms: _314  and  _316
REMARK  128  A    between atoms: _316  and  _317
REMARK  129  A    between atoms: _316  and  _319
REMARK  130  A    between atoms: _322  and  _324
REMARK  131  A    between atoms: _324  and  _325
REMARK  132  A    between atoms: _324  and  _327
REMARK  133  A    between atoms: _327  and  _328
REMARK  134  A    between atoms: _328  and  _329
REMARK  135  A    between atoms: _329  and  _330
REMARK  136  A    between atoms: _330  and  _331
REMARK  137  A    between atoms: _335  and  _337
REMARK  138  A    between atoms: _337  and  _338
REMARK  139  A    between atoms: _337  and  _340
REMARK  140  A    between atoms: _340  and  _341
REMARK  141  A    between atoms: _341  and  _342
REMARK  142  A    between atoms: _344  and  _346
REMARK  143  A    between atoms: _346  and  _347
REMARK  144  A    between atoms: _346  and  _349
REMARK  145  A    between atoms: _349  and  _350
REMARK  146  A    between atoms: _353  and  _355
REMARK  147  A    between atoms: _355  and  _356
REMARK  148  A    between atoms: _358  and  _360
REMARK  149  A    between atoms: _360  and  _361
REMARK  150  A    between atoms: _363  and  _365
REMARK  151  A    between atoms: _365  and  _366
REMARK  152  A    between atoms: _365  and  _368
REMARK  153  A    between atoms: _368  and  _369
REMARK  154  A    between atoms: _372  and  _374
REMARK  155  A    between atoms: _374  and  _375
REMARK  156  A    between atoms: _377  and  _379
REMARK  157  A    between atoms: _379  and  _380
REMARK  158  A    between atoms: _382  and  _384
REMARK  159  A    between atoms: _384  and  _385
REMARK  160  A    between atoms: _384  and  _387
REMARK  161  A    between atoms: _387  and  _388
REMARK  162  A    between atoms: _394  and  _396
REMARK  163  A    between atoms: _396  and  _397
REMARK  164  A    between atoms: _396  and  _399
REMARK  165  A    between atoms: _399  and  _400
REMARK  166  A    between atoms: _403  and  _405
REMARK  167  A    between atoms: _405  and  _406
REMARK  168  A    between atoms: _405  and  _408
REMARK  169  A    between atoms: _408  and  _409
REMARK  170  A    between atoms: _412  and  _414
REMARK  171  A    between atoms: _414  and  _415
REMARK  172  A    between atoms: _414  and  _417
REMARK  173  A    between atoms: _417  and  _418
REMARK  174  A    between atoms: _422  and  _423
REMARK  175  A    between atoms: _428  and  _430
REMARK  176  A    between atoms: _430  and  _431
REMARK  177  A    between atoms: _430  and  _433
REMARK  178  A    between atoms: _436  and  _438
REMARK  179  A    between atoms: _438  and  _439
REMARK  180  A    between atoms: _438  and  _441
REMARK  181  A    between atoms: _441  and  _442
REMARK  182  A    between atoms: _447  and  _449
REMARK  183  A    between atoms: _449  and  _450
REMARK  184  A    between atoms: _449  and  _452
REMARK  185  A    between atoms: _452  and  _453
REMARK  186  A    between atoms: _456  and  _458
REMARK  187  A    between atoms: _458  and  _459
REMARK  188  A    between atoms: _458  and  _461
REMARK  189  A    between atoms: _461  and  _462
REMARK  190  A    between atoms: _465  and  _467
REMARK  191  A    between atoms: _467  and  _468
REMARK  192  A    between atoms: _470  and  _472
REMARK  193  A    between atoms: _472  and  _473
REMARK  194  A    between atoms: _472  and  _475
REMARK  195  A    between atoms: _475  and  _476
REMARK  196  A    between atoms: _476  and  _477
REMARK  197  A    between atoms: _477  and  _478
REMARK  198  A    between atoms: _487  and  _489
REMARK  199  A    between atoms: _489  and  _490
REMARK  200  A    between atoms: _489  and  _492
REMARK  201  A    between atoms: _492  and  _493
REMARK                            x       y       z     vdW  Elec       q    Type
REMARK                         _______ _______ _______ _____ _____    ______ ____
ROOT
ATOM      1  O   HOH     1      19.698  16.113   1.893  0.00  0.00    +0.000 OA
ENDROOT
TORSDOF 0
REMARK  Name = ../refined-set-2016/1hpo/1hpo_pocket.pdb
REMARK  201 active torsions:
REMARK  status: ('A' for Active; 'I' for Inactive)
REMARK    1  A    between atoms: _1  and  _3
REMARK    2  A    between atoms: _3  and  _4
REMARK    3  A    between atoms: _3  and  _6
REMARK    4  A    between atoms: _6  and  _7
REMARK    5  A    between atoms: _7  and  _8
REMARK    6  A    between atoms: _8  and  _9
REMARK    7  A    between atoms: _19  and  _20
REMARK    8  A    between atoms: _25  and  _27
REMARK    9  A    between atoms: _27  and  _28
REMARK   10  A    between atoms: _27  and  _30
REMARK   11  A    between atoms: _30  and  _31
REMARK   12  A    between atoms: _34  and  _36
REMARK   13  A    between atoms: _36  and  _37
REMARK   14  A    between atoms: _36  and  _39
REMARK   15  A    between atoms: _39  and  _40
REMARK   16  A    between atoms: _40  and  _41
REMARK   17  A    between atoms: _44  and  _46
REMARK   18  A    between atoms: _46  and  _47
REMARK   19  A    between atoms: _50  and  _52
REMARK   20  A    between atoms: _52  and  _53
REMARK   21  A    between atoms: _52  and  _55
REMARK   22  A    between atoms: _55  and  _56
REMARK   23  A    between atoms: _59  and  _61
REMARK   24  A    between atoms: _61  and  _62
REMARK   25  A    between atoms: _61  and  _64
REMARK   26  A    between atoms: _64  and  _65
REMARK   27  A    between atoms: _68  and  _70
REMARK   28  A    between atoms: _70  and  _71
REMARK   29  A    between atoms: _70  and  _73
REMARK   30  A    between atoms: _73  and  _74
REMARK   31  A    between atoms: _77  and  _79
REMARK   32  A    between atoms: _79  and  _80
REMARK   33  A    between atoms: _79  and  _82
REMARK   34  A    between atoms: _82  and  _83
REMARK   35  A    between atoms: _86  and  _88
REMARK   36  A    between atoms: _88  and  _89
REMARK   37  A    between atoms: _91  and  _93
REMARK   38  A    between atoms: _93  and  _94
REMARK   39  A    between atoms: _97  and  _99
REMARK   40  A    between atoms: _99  and  _100
REMARK   41  A    between atoms: _99  and  _102
REMARK   42  A    between atoms: _102  and  _103
REMARK   43  A    between atoms: _106  and  _108
REMARK   44  A    between atoms: _108  and  _109
REMARK   45  A    between atoms: _108  and  _111
REMARK   46  A    between atoms: _111  and  _112
REMARK   47  A    between atoms: _115  and  _117
REMARK   48  A    between atoms: _117  and  _118
REMARK   49  A    between atoms: _117  and  _120
REMARK   50  A    between atoms: _120  and  _121
REMARK   51  A    between atoms: _124  and  _126
REMARK   52  A    between atoms: _126  and  _127
REMARK   53  A    between atoms: _129  and  _131
REMARK   54  A    between atoms: _131  and  _132
REMARK   55  A    between atoms: _134  and  _136
REMARK   56  A    between atoms: _136  and  _137
REMARK   57  A    between atoms: _136  and  _139
REMARK   58  A    between atoms: _139  and  _140
REMARK   59  A    between atoms: _143  and  _145
REMARK   60  A    between atoms: _145  and  _146
REMARK   61  A    between atoms: _148  and  _150
REMARK   62  A    between atoms: _150  and  _151
REMARK   63  A    between atoms: _153  and  _155
REMARK   64  A    between atoms: _155  and  _156
REMARK   65  A    between atoms: _155  and  _158
REMARK   66  A    between atoms: _158  and  _159
REMARK   67  A    between atoms: _163  and  _164
REMARK   68  A    between atoms: _169  and  _171
REMARK   69  A    between atoms: _171  and  _172
REMARK   70  A    between atoms: _171  and  _174
REMARK   71  A    between atoms: _177  and  _179
REMARK   72  A    between atoms: _179  and  _180
REMARK   73  A    between atoms: _179  and  _182
REMARK   74  A    between atoms: _182  and  _183
REMARK   75  A    between atoms: _188  and  _190
REMARK   76  A    between atoms: _190  and  _191
REMARK   77  A    between atoms: _190  and  _193
REMARK   78  A    between atoms: _193  and  _194
REMARK   79  A    between atoms: _197  and  _199
REMARK   80  A    between atoms: _199  and  _200
REMARK   81  A    between atoms: _199  and  _202
REMARK   82  A    between atoms: _202  and  _203
REMARK   83  A    between atoms: _206  and  _208
REMARK   84  A    between atoms: _208  and  _209
REMARK   85  A    between atoms: _208  and  _211
REMARK   86  A    between atoms: _211  and  _212
REMARK   87  A    between atoms: _212  and  _213
REMARK   88  A    between atoms: _213  and  _214
REMARK   89  A    between atoms: _223  and  _225
REMARK   90  A    between atoms: _225  and  _226
REMARK   91  A    between atoms: _225  and  _228
REMARK   92  A    between atoms: _228  and  _229
REMARK   93  A    between atoms: _229  and  _230
REMARK   94  A    between atoms: _230  and  _231
REMARK   95  A    between atoms: _240  and  _242
REMARK   96  A    between atoms: _242  and  _243
REMARK   97  A    between atoms: _242  and  _245
REMARK   98  A    between atoms: _245  and  _246
REMARK   99  A    between atoms: _249  and  _251
REMARK  100  A    between atoms: _251  and  _252
REMARK  101  A    between atoms: _251  and  _254
REMARK  102  A    between atoms: _254  and  _255
REMARK  103  A    between atoms: _258  and  _260
REMARK  104  A    between atoms: _260  and  _261
REMARK  105  A    between atoms: _260  and  _263
REMARK  106  A    between atoms: _263  and  _264
REMARK  107  A    between atoms: _267  and  _269
REMARK  108  A    between atoms: _269  and  _270
REMARK  109  A    between atoms: _269  and  _272
REMARK  110  A    between atoms: _272  and  _273
REMARK  111  A    between atoms: _276  and  _278
REMARK  112  A    between atoms: _278  and  _279
REMARK  113  A    between atoms: _281  and  _283
REMARK  114  A    between atoms: _283  and  _284
REMARK  115  A    between atoms: _287  and  _289
REMARK  116  A    between atoms: _289  and  _290
REMARK  117  A    between atoms: _289  and  _292
REMARK  118  A    between atoms: _292  and  _293
REMARK  119  A    between atoms: _296  and  _298
REMARK  120  A    between atoms: _298  and  _299
REMARK  121  A    between atoms: _298  and  _301
REMARK  122  A    between atoms: _301  and  _302
REMARK  123  A    between atoms: _305  and  _307
REMARK  124  A    between atoms: _307  and  _308
REMARK  125  A    between atoms: _307  and  _310
REMARK  126  A    between atoms: _310  and  _311
REMARK  127  A    between atoms: _314  and  _316
REMARK  128  A    between atoms: _316  and  _317
REMARK  129  A    between atoms: _316  and  _319
REMARK  130  A    between atoms: _322  and  _324
REMARK  131  A    between atoms: _324  and  _325
REMARK  132  A    between atoms: _324  and  _327
REMARK  133  A    between atoms: _327  and  _328
REMARK  134  A    between atoms: _328  and  _329
REMARK  135  A    between atoms: _329  and  _330
REMARK  136  A    between atoms: _330  and  _331
REMARK  137  A    between atoms: _335  and  _337
REMARK  138  A    between atoms: _337  and  _338
REMARK  139  A    between atoms: _337  and  _340
REMARK  140  A    between atoms: _340  and  _341
REMARK  141  A    between atoms: _341  and  _342
REMARK  142  A    between atoms: _344  and  _346
REMARK  143  A    between atoms: _346  and  _347
REMARK  144  A    between atoms: _346  and  _349
REMARK  145  A    between atoms: _349  and  _350
REMARK  146  A    between atoms: _353  and  _355
REMARK  147  A    between atoms: _355  and  _356
REMARK  148  A    between atoms: _358  and  _360
REMARK  149  A    between atoms: _360  and  _361
REMARK  150  A    between atoms: _363  and  _365
REMARK  151  A    between atoms: _365  and  _366
REMARK  152  A    between atoms: _365  and  _368
REMARK  153  A    between atoms: _368  and  _369
REMARK  154  A    between atoms: _372  and  _374
REMARK  155  A    between atoms: _374  and  _375
REMARK  156  A    between atoms: _377  and  _379
REMARK  157  A    between atoms: _379  and  _380
REMARK  158  A    between atoms: _382  and  _384
REMARK  159  A    between atoms: _384  and  _385
REMARK  160  A    between atoms: _384  and  _387
REMARK  161  A    between atoms: _387  and  _388
REMARK  162  A    between atoms: _394  and  _396
REMARK  163  A    between atoms: _396  and  _397
REMARK  164  A    between atoms: _396  and  _399
REMARK  165  A    between atoms: _399  and  _400
REMARK  166  A    between atoms: _403  and  _405
REMARK  167  A    between atoms: _405  and  _406
REMARK  168  A    between atoms: _405  and  _408
REMARK  169  A    between atoms: _408  and  _409
REMARK  170  A    between atoms: _412  and  _414
REMARK  171  A    between atoms: _414  and  _415
REMARK  172  A    between atoms: _414  and  _417
REMARK  173  A    between atoms: _417  and  _418
REMARK  174  A    between atoms: _422  and  _423
REMARK  175  A    between atoms: _428  and  _430
REMARK  176  A    between atoms: _430  and  _431
REMARK  177  A    between atoms: _430  and  _433
REMARK  178  A    between atoms: _436  and  _438
REMARK  179  A    between atoms: _438  and  _439
REMARK  180  A    between atoms: _438  and  _441
REMARK  181  A    between atoms: _441  and  _442
REMARK  182  A    between atoms: _447  and  _449
REMARK  183  A    between atoms: _449  and  _450
REMARK  184  A    between atoms: _449  and  _452
REMARK  185  A    between atoms: _452  and  _453
REMARK  186  A    between atoms: _456  and  _458
REMARK  187  A    between atoms: _458  and  _459
REMARK  188  A    between atoms: _458  and  _461
REMARK  189  A    between atoms: _461  and  _462
REMARK  190  A    between atoms: _465  and  _467
REMARK  191  A    between atoms: _467  and  _468
REMARK  192  A    between atoms: _470  and  _472
REMARK  193  A    between atoms: _472  and  _473
REMARK  194  A    between atoms: _472  and  _475
REMARK  195  A    between atoms: _475  and  _476
REMARK  196  A    between atoms: _476  and  _477
REMARK  197  A    between atoms: _477  and  _478
REMARK  198  A    between atoms: _487  and  _489
REMARK  199  A    between atoms: _489  and  _490
REMARK  200  A    between atoms: _489  and  _492
REMARK  201  A    between atoms: _492  and  _493
REMARK                            x       y       z     vdW  Elec       q    Type
REMARK                         _______ _______ _______ _____ _____    ______ ____
ROOT
ATOM      1  O   HOH     1      18.977  14.657   7.828  0.00  0.00    +0.000 OA
ENDROOT
TORSDOF 0
REMARK  Name = ../refined-set-2016/1hpo/1hpo_pocket.pdb
REMARK  201 active torsions:
REMARK  status: ('A' for Active; 'I' for Inactive)
REMARK    1  A    between atoms: _1  and  _3
REMARK    2  A    between atoms: _3  and  _4
REMARK    3  A    between atoms: _3  and  _6
REMARK    4  A    between atoms: _6  and  _7
REMARK    5  A    between atoms: _7  and  _8
REMARK    6  A    between atoms: _8  and  _9
REMARK    7  A    between atoms: _19  and  _20
REMARK    8  A    between atoms: _25  and  _27
REMARK    9  A    between atoms: _27  and  _28
REMARK   10  A    between atoms: _27  and  _30
REMARK   11  A    between atoms: _30  and  _31
REMARK   12  A    between atoms: _34  and  _36
REMARK   13  A    between atoms: _36  and  _37
REMARK   14  A    between atoms: _36  and  _39
REMARK   15  A    between atoms: _39  and  _40
REMARK   16  A    between atoms: _40  and  _41
REMARK   17  A    between atoms: _44  and  _46
REMARK   18  A    between atoms: _46  and  _47
REMARK   19  A    between atoms: _50  and  _52
REMARK   20  A    between atoms: _52  and  _53
REMARK   21  A    between atoms: _52  and  _55
REMARK   22  A    between atoms: _55  and  _56
REMARK   23  A    between atoms: _59  and  _61
REMARK   24  A    between atoms: _61  and  _62
REMARK   25  A    between atoms: _61  and  _64
REMARK   26  A    between atoms: _64  and  _65
REMARK   27  A    between atoms: _68  and  _70
REMARK   28  A    between atoms: _70  and  _71
REMARK   29  A    between atoms: _70  and  _73
REMARK   30  A    between atoms: _73  and  _74
REMARK   31  A    between atoms: _77  and  _79
REMARK   32  A    between atoms: _79  and  _80
REMARK   33  A    between atoms: _79  and  _82
REMARK   34  A    between atoms: _82  and  _83
REMARK   35  A    between atoms: _86  and  _88
REMARK   36  A    between atoms: _88  and  _89
REMARK   37  A    between atoms: _91  and  _93
REMARK   38  A    between atoms: _93  and  _94
REMARK   39  A    between atoms: _97  and  _99
REMARK   40  A    between atoms: _99  and  _100
REMARK   41  A    between atoms: _99  and  _102
REMARK   42  A    between atoms: _102  and  _103
REMARK   43  A    between atoms: _106  and  _108
REMARK   44  A    between atoms: _108  and  _109
REMARK   45  A    between atoms: _108  and  _111
REMARK   46  A    between atoms: _111  and  _112
REMARK   47  A    between atoms: _115  and  _117
REMARK   48  A    between atoms: _117  and  _118
REMARK   49  A    between atoms: _117  and  _120
REMARK   50  A    between atoms: _120  and  _121
REMARK   51  A    between atoms: _124  and  _126
REMARK   52  A    between atoms: _126  and  _127
REMARK   53  A    between atoms: _129  and  _131
REMARK   54  A    between atoms: _131  and  _132
REMARK   55  A    between atoms: _134  and  _136
REMARK   56  A    between atoms: _136  and  _137
REMARK   57  A    between atoms: _136  and  _139
REMARK   58  A    between atoms: _139  and  _140
REMARK   59  A    between atoms: _143  and  _145
REMARK   60  A    between atoms: _145  and  _146
REMARK   61  A    between atoms: _148  and  _150
REMARK   62  A    between atoms: _150  and  _151
REMARK   63  A    between atoms: _153  and  _155
REMARK   64  A    between atoms: _155  and  _156
REMARK   65  A    between atoms: _155  and  _158
REMARK   66  A    between atoms: _158  and  _159
REMARK   67  A    between atoms: _163  and  _164
REMARK   68  A    between atoms: _169  and  _171
REMARK   69  A    between atoms: _171  and  _172
REMARK   70  A    between atoms: _171  and  _174
REMARK   71  A    between atoms: _177  and  _179
REMARK   72  A    between atoms: _179  and  _180
REMARK   73  A    between atoms: _179  and  _182
REMARK   74  A    between atoms: _182  and  _183
REMARK   75  A    between atoms: _188  and  _190
REMARK   76  A    between atoms: _190  and  _191
REMARK   77  A    between atoms: _190  and  _193
REMARK   78  A    between atoms: _193  and  _194
REMARK   79  A    between atoms: _197  and  _199
REMARK   80  A    between atoms: _199  and  _200
REMARK   81  A    between atoms: _199  and  _202
REMARK   82  A    between atoms: _202  and  _203
REMARK   83  A    between atoms: _206  and  _208
REMARK   84  A    between atoms: _208  and  _209
REMARK   85  A    between atoms: _208  and  _211
REMARK   86  A    between atoms: _211  and  _212
REMARK   87  A    between atoms: _212  and  _213
REMARK   88  A    between atoms: _213  and  _214
REMARK   89  A    between atoms: _223  and  _225
REMARK   90  A    between atoms: _225  and  _226
REMARK   91  A    between atoms: _225  and  _228
REMARK   92  A    between atoms: _228  and  _229
REMARK   93  A    between atoms: _229  and  _230
REMARK   94  A    between atoms: _230  and  _231
REMARK   95  A    between atoms: _240  and  _242
REMARK   96  A    between atoms: _242  and  _243
REMARK   97  A    between atoms: _242  and  _245
REMARK   98  A    between atoms: _245  and  _246
REMARK   99  A    between atoms: _249  and  _251
REMARK  100  A    between atoms: _251  and  _252
REMARK  101  A    between atoms: _251  and  _254
REMARK  102  A    between atoms: _254  and  _255
REMARK  103  A    between atoms: _258  and  _260
REMARK  104  A    between atoms: _260  and  _261
REMARK  105  A    between atoms: _260  and  _263
REMARK  106  A    between atoms: _263  and  _264
REMARK  107  A    between atoms: _267  and  _269
REMARK  108  A    between atoms: _269  and  _270
REMARK  109  A    between atoms: _269  and  _272
REMARK  110  A    between atoms: _272  and  _273
REMARK  111  A    between atoms: _276  and  _278
REMARK  112  A    between atoms: _278  and  _279
REMARK  113  A    between atoms: _281  and  _283
REMARK  114  A    between atoms: _283  and  _284
REMARK  115  A    between atoms: _287  and  _289
REMARK  116  A    between atoms: _289  and  _290
REMARK  117  A    between atoms: _289  and  _292
REMARK  118  A    between atoms: _292  and  _293
REMARK  119  A    between atoms: _296  and  _298
REMARK  120  A    between atoms: _298  and  _299
REMARK  121  A    between atoms: _298  and  _301
REMARK  122  A    between atoms: _301  and  _302
REMARK  123  A    between atoms: _305  and  _307
REMARK  124  A    between atoms: _307  and  _308
REMARK  125  A    between atoms: _307  and  _310
REMARK  126  A    between atoms: _310  and  _311
REMARK  127  A    between atoms: _314  and  _316
REMARK  128  A    between atoms: _316  and  _317
REMARK  129  A    between atoms: _316  and  _319
REMARK  130  A    between atoms: _322  and  _324
REMARK  131  A    between atoms: _324  and  _325
REMARK  132  A    between atoms: _324  and  _327
REMARK  133  A    between atoms: _327  and  _328
REMARK  134  A    between atoms: _328  and  _329
REMARK  135  A    between atoms: _329  and  _330
REMARK  136  A    between atoms: _330  and  _331
REMARK  137  A    between atoms: _335  and  _337
REMARK  138  A    between atoms: _337  and  _338
REMARK  139  A    between atoms: _337  and  _340
REMARK  140  A    between atoms: _340  and  _341
REMARK  141  A    between atoms: _341  and  _342
REMARK  142  A    between atoms: _344  and  _346
REMARK  143  A    between atoms: _346  and  _347
REMARK  144  A    between atoms: _346  and  _349
REMARK  145  A    between atoms: _349  and  _350
REMARK  146  A    between atoms: _353  and  _355
REMARK  147  A    between atoms: _355  and  _356
REMARK  148  A    between atoms: _358  and  _360
REMARK  149  A    between atoms: _360  and  _361
REMARK  150  A    between atoms: _363  and  _365
REMARK  151  A    between atoms: _365  and  _366
REMARK  152  A    between atoms: _365  and  _368
REMARK  153  A    between atoms: _368  and  _369
REMARK  154  A    between atoms: _372  and  _374
REMARK  155  A    between atoms: _374  and  _375
REMARK  156  A    between atoms: _377  and  _379
REMARK  157  A    between atoms: _379  and  _380
REMARK  158  A    between atoms: _382  and  _384
REMARK  159  A    between atoms: _384  and  _385
REMARK  160  A    between atoms: _384  and  _387
REMARK  161  A    between atoms: _387  and  _388
REMARK  162  A    between atoms: _394  and  _396
REMARK  163  A    between atoms: _396  and  _397
REMARK  164  A    between atoms: _396  and  _399
REMARK  165  A    between atoms: _399  and  _400
REMARK  166  A    between atoms: _403  and  _405
REMARK  167  A    between atoms: _405  and  _406
REMARK  168  A    between atoms: _405  and  _408
REMARK  169  A    between atoms: _408  and  _409
REMARK  170  A    between atoms: _412  and  _414
REMARK  171  A    between atoms: _414  and  _415
REMARK  172  A    between atoms: _414  and  _417
REMARK  173  A    between atoms: _417  and  _418
REMARK  174  A    between atoms: _422  and  _423
REMARK  175  A    between atoms: _428  and  _430
REMARK  176  A    between atoms: _430  and  _431
REMARK  177  A    between atoms: _430  and  _433
REMARK  178  A    between atoms: _436  and  _438
REMARK  179  A    between atoms: _438  and  _439
REMARK  180  A    between atoms: _438  and  _441
REMARK  181  A    between atoms: _441  and  _442
REMARK  182  A    between atoms: _447  and  _449
REMARK  183  A    between atoms: _449  and  _450
REMARK  184  A    between atoms: _449  and  _452
REMARK  185  A    between atoms: _452  and  _453
REMARK  186  A    between atoms: _456  and  _458
REMARK  187  A    between atoms: _458  and  _459
REMARK  188  A    between atoms: _458  and  _461
REMARK  189  A    between atoms: _461  and  _462
REMARK  190  A    between atoms: _465  and  _467
REMARK  191  A    between atoms: _467  and  _468
REMARK  192  A    between atoms: _470  and  _472
REMARK  193  A    between atoms: _472  and  _473
REMARK  194  A    between atoms: _472  and  _475
REMARK  195  A    between atoms: _475  and  _476
REMARK  196  A    between atoms: _476  and  _477
REMARK  197  A    between atoms: _477  and  _478
REMARK  198  A    between atoms: _487  and  _489
REMARK  199  A    between atoms: _489  and  _490
REMARK  200  A    between atoms: _489  and  _492
REMARK  201  A    between atoms: _492  and  _493
REMARK                            x       y       z     vdW  Elec       q    Type
REMARK                         _______ _______ _______ _____ _____    ______ ____
ROOT
ATOM      1  O   HOH     1      20.914  14.983   4.229  0.00  0.00    +0.000 OA
ENDROOT
TORSDOF 0
REMARK  Name = ../refined-set-2016/1hpo/1hpo_pocket.pdb
REMARK  201 active torsions:
REMARK  status: ('A' for Active; 'I' for Inactive)
REMARK    1  A    between atoms: _1  and  _3
REMARK    2  A    between atoms: _3  and  _4
REMARK    3  A    between atoms: _3  and  _6
REMARK    4  A    between atoms: _6  and  _7
REMARK    5  A    between atoms: _7  and  _8
REMARK    6  A    between atoms: _8  and  _9
REMARK    7  A    between atoms: _19  and  _20
REMARK    8  A    between atoms: _25  and  _27
REMARK    9  A    between atoms: _27  and  _28
REMARK   10  A    between atoms: _27  and  _30
REMARK   11  A    between atoms: _30  and  _31
REMARK   12  A    between atoms: _34  and  _36
REMARK   13  A    between atoms: _36  and  _37
REMARK   14  A    between atoms: _36  and  _39
REMARK   15  A    between atoms: _39  and  _40
REMARK   16  A    between atoms: _40  and  _41
REMARK   17  A    between atoms: _44  and  _46
REMARK   18  A    between atoms: _46  and  _47
REMARK   19  A    between atoms: _50  and  _52
REMARK   20  A    between atoms: _52  and  _53
REMARK   21  A    between atoms: _52  and  _55
REMARK   22  A    between atoms: _55  and  _56
REMARK   23  A    between atoms: _59  and  _61
REMARK   24  A    between atoms: _61  and  _62
REMARK   25  A    between atoms: _61  and  _64
REMARK   26  A    between atoms: _64  and  _65
REMARK   27  A    between atoms: _68  and  _70
REMARK   28  A    between atoms: _70  and  _71
REMARK   29  A    between atoms: _70  and  _73
REMARK   30  A    between atoms: _73  and  _74
REMARK   31  A    between atoms: _77  and  _79
REMARK   32  A    between atoms: _79  and  _80
REMARK   33  A    between atoms: _79  and  _82
REMARK   34  A    between atoms: _82  and  _83
REMARK   35  A    between atoms: _86  and  _88
REMARK   36  A    between atoms: _88  and  _89
REMARK   37  A    between atoms: _91  and  _93
REMARK   38  A    between atoms: _93  and  _94
REMARK   39  A    between atoms: _97  and  _99
REMARK   40  A    between atoms: _99  and  _100
REMARK   41  A    between atoms: _99  and  _102
REMARK   42  A    between atoms: _102  and  _103
REMARK   43  A    between atoms: _106  and  _108
REMARK   44  A    between atoms: _108  and  _109
REMARK   45  A    between atoms: _108  and  _111
REMARK   46  A    between atoms: _111  and  _112
REMARK   47  A    between atoms: _115  and  _117
REMARK   48  A    between atoms: _117  and  _118
REMARK   49  A    between atoms: _117  and  _120
REMARK   50  A    between atoms: _120  and  _121
REMARK   51  A    between atoms: _124  and  _126
REMARK   52  A    between atoms: _126  and  _127
REMARK   53  A    between atoms: _129  and  _131
REMARK   54  A    between atoms: _131  and  _132
REMARK   55  A    between atoms: _134  and  _136
REMARK   56  A    between atoms: _136  and  _137
REMARK   57  A    between atoms: _136  and  _139
REMARK   58  A    between atoms: _139  and  _140
REMARK   59  A    between atoms: _143  and  _145
REMARK   60  A    between atoms: _145  and  _146
REMARK   61  A    between atoms: _148  and  _150
REMARK   62  A    between atoms: _150  and  _151
REMARK   63  A    between atoms: _153  and  _155
REMARK   64  A    between atoms: _155  and  _156
REMARK   65  A    between atoms: _155  and  _158
REMARK   66  A    between atoms: _158  and  _159
REMARK   67  A    between atoms: _163  and  _164
REMARK   68  A    between atoms: _169  and  _171
REMARK   69  A    between atoms: _171  and  _172
REMARK   70  A    between atoms: _171  and  _174
REMARK   71  A    between atoms: _177  and  _179
REMARK   72  A    between atoms: _179  and  _180
REMARK   73  A    between atoms: _179  and  _182
REMARK   74  A    between atoms: _182  and  _183
REMARK   75  A    between atoms: _188  and  _190
REMARK   76  A    between atoms: _190  and  _191
REMARK   77  A    between atoms: _190  and  _193
REMARK   78  A    between atoms: _193  and  _194
REMARK   79  A    between atoms: _197  and  _199
REMARK   80  A    between atoms: _199  and  _200
REMARK   81  A    between atoms: _199  and  _202
REMARK   82  A    between atoms: _202  and  _203
REMARK   83  A    between atoms: _206  and  _208
REMARK   84  A    between atoms: _208  and  _209
REMARK   85  A    between atoms: _208  and  _211
REMARK   86  A    between atoms: _211  and  _212
REMARK   87  A    between atoms: _212  and  _213
REMARK   88  A    between atoms: _213  and  _214
REMARK   89  A    between atoms: _223  and  _225
REMARK   90  A    between atoms: _225  and  _226
REMARK   91  A    between atoms: _225  and  _228
REMARK   92  A    between atoms: _228  and  _229
REMARK   93  A    between atoms: _229  and  _230
REMARK   94  A    between atoms: _230  and  _231
REMARK   95  A    between atoms: _240  and  _242
REMARK   96  A    between atoms: _242  and  _243
REMARK   97  A    between atoms: _242  and  _245
REMARK   98  A    between atoms: _245  and  _246
REMARK   99  A    between atoms: _249  and  _251
REMARK  100  A    between atoms: _251  and  _252
REMARK  101  A    between atoms: _251  and  _254
REMARK  102  A    between atoms: _254  and  _255
REMARK  103  A    between atoms: _258  and  _260
REMARK  104  A    between atoms: _260  and  _261
REMARK  105  A    between atoms: _260  and  _263
REMARK  106  A    between atoms: _263  and  _264
REMARK  107  A    between atoms: _267  and  _269
REMARK  108  A    between atoms: _269  and  _270
REMARK  109  A    between atoms: _269  and  _272
REMARK  110  A    between atoms: _272  and  _273
REMARK  111  A    between atoms: _276  and  _278
REMARK  112  A    between atoms: _278  and  _279
REMARK  113  A    between atoms: _281  and  _283
REMARK  114  A    between atoms: _283  and  _284
REMARK  115  A    between atoms: _287  and  _289
REMARK  116  A    between atoms: _289  and  _290
REMARK  117  A    between atoms: _289  and  _292
REMARK  118  A    between atoms: _292  and  _293
REMARK  119  A    between atoms: _296  and  _298
REMARK  120  A    between atoms: _298  and  _299
REMARK  121  A    between atoms: _298  and  _301
REMARK  122  A    between atoms: _301  and  _302
REMARK  123  A    between atoms: _305  and  _307
REMARK  124  A    between atoms: _307  and  _308
REMARK  125  A    between atoms: _307  and  _310
REMARK  126  A    between atoms: _310  and  _311
REMARK  127  A    between atoms: _314  and  _316
REMARK  128  A    between atoms: _316  and  _317
REMARK  129  A    between atoms: _316  and  _319
REMARK  130  A    between atoms: _322  and  _324
REMARK  131  A    between atoms: _324  and  _325
REMARK  132  A    between atoms: _324  and  _327
REMARK  133  A    between atoms: _327  and  _328
REMARK  134  A    between atoms: _328  and  _329
REMARK  135  A    between atoms: _329  and  _330
REMARK  136  A    between atoms: _330  and  _331
REMARK  137  A    between atoms: _335  and  _337
REMARK  138  A    between atoms: _337  and  _338
REMARK  139  A    between atoms: _337  and  _340
REMARK  140  A    between atoms: _340  and  _341
REMARK  141  A    between atoms: _341  and  _342
REMARK  142  A    between atoms: _344  and  _346
REMARK  143  A    between atoms: _346  and  _347
REMARK  144  A    between atoms: _346  and  _349
REMARK  145  A    between atoms: _349  and  _350
REMARK  146  A    between atoms: _353  and  _355
REMARK  147  A    between atoms: _355  and  _356
REMARK  148  A    between atoms: _358  and  _360
REMARK  149  A    between atoms: _360  and  _361
REMARK  150  A    between atoms: _363  and  _365
REMARK  151  A    between atoms: _365  and  _366
REMARK  152  A    between atoms: _365  and  _368
REMARK  153  A    between atoms: _368  and  _369
REMARK  154  A    between atoms: _372  and  _374
REMARK  155  A    between atoms: _374  and  _375
REMARK  156  A    between atoms: _377  and  _379
REMARK  157  A    between atoms: _379  and  _380
REMARK  158  A    between atoms: _382  and  _384
REMARK  159  A    between atoms: _384  and  _385
REMARK  160  A    between atoms: _384  and  _387
REMARK  161  A    between atoms: _387  and  _388
REMARK  162  A    between atoms: _394  and  _396
REMARK  163  A    between atoms: _396  and  _397
REMARK  164  A    between atoms: _396  and  _399
REMARK  165  A    between atoms: _399  and  _400
REMARK  166  A    between atoms: _403  and  _405
REMARK  167  A    between atoms: _405  and  _406
REMARK  168  A    between atoms: _405  and  _408
REMARK  169  A    between atoms: _408  and  _409
REMARK  170  A    between atoms: _412  and  _414
REMARK  171  A    between atoms: _414  and  _415
REMARK  172  A    between atoms: _414  and  _417
REMARK  173  A    between atoms: _417  and  _418
REMARK  174  A    between atoms: _422  and  _423
REMARK  175  A    between atoms: _428  and  _430
REMARK  176  A    between atoms: _430  and  _431
REMARK  177  A    between atoms: _430  and  _433
REMARK  178  A    between atoms: _436  and  _438
REMARK  179  A    between atoms: _438  and  _439
REMARK  180  A    between atoms: _438  and  _441
REMARK  181  A    between atoms: _441  and  _442
REMARK  182  A    between atoms: _447  and  _449
REMARK  183  A    between atoms: _449  and  _450
REMARK  184  A    between atoms: _449  and  _452
REMARK  185  A    between atoms: _452  and  _453
REMARK  186  A    between atoms: _456  and  _458
REMARK  187  A    between atoms: _458  and  _459
REMARK  188  A    between atoms: _458  and  _461
REMARK  189  A    between atoms: _461  and  _462
REMARK  190  A    between atoms: _465  and  _467
REMARK  191  A    between atoms: _467  and  _468
REMARK  192  A    between atoms: _470  and  _472
REMARK  193  A    between atoms: _472  and  _473
REMARK  194  A    between atoms: _472  and  _475
REMARK  195  A    between atoms: _475  and  _476
REMARK  196  A    between atoms: _476  and  _477
REMARK  197  A    between atoms: _477  and  _478
REMARK  198  A    between atoms: _487  and  _489
REMARK  199  A    between atoms: _489  and  _490
REMARK  200  A    between atoms: _489  and  _492
REMARK  201  A    between atoms: _492  and  _493
REMARK                            x       y       z     vdW  Elec       q    Type
REMARK                         _______ _______ _______ _____ _____    ______ ____
ROOT
ATOM      1  O   HOH     1      22.705  23.637   5.079  0.00  0.00    +0.000 OA
ENDROOT
TORSDOF 0
REMARK  Name = ../refined-set-2016/1hpo/1hpo_pocket.pdb
REMARK  201 active torsions:
REMARK  status: ('A' for Active; 'I' for Inactive)
REMARK    1  A    between atoms: _1  and  _3
REMARK    2  A    between atoms: _3  and  _4
REMARK    3  A    between atoms: _3  and  _6
REMARK    4  A    between atoms: _6  and  _7
REMARK    5  A    between atoms: _7  and  _8
REMARK    6  A    between atoms: _8  and  _9
REMARK    7  A    between atoms: _19  and  _20
REMARK    8  A    between atoms: _25  and  _27
REMARK    9  A    between atoms: _27  and  _28
REMARK   10  A    between atoms: _27  and  _30
REMARK   11  A    between atoms: _30  and  _31
REMARK   12  A    between atoms: _34  and  _36
REMARK   13  A    between atoms: _36  and  _37
REMARK   14  A    between atoms: _36  and  _39
REMARK   15  A    between atoms: _39  and  _40
REMARK   16  A    between atoms: _40  and  _41
REMARK   17  A    between atoms: _44  and  _46
REMARK   18  A    between atoms: _46  and  _47
REMARK   19  A    between atoms: _50  and  _52
REMARK   20  A    between atoms: _52  and  _53
REMARK   21  A    between atoms: _52  and  _55
REMARK   22  A    between atoms: _55  and  _56
REMARK   23  A    between atoms: _59  and  _61
REMARK   24  A    between atoms: _61  and  _62
REMARK   25  A    between atoms: _61  and  _64
REMARK   26  A    between atoms: _64  and  _65
REMARK   27  A    between atoms: _68  and  _70
REMARK   28  A    between atoms: _70  and  _71
REMARK   29  A    between atoms: _70  and  _73
REMARK   30  A    between atoms: _73  and  _74
REMARK   31  A    between atoms: _77  and  _79
REMARK   32  A    between atoms: _79  and  _80
REMARK   33  A    between atoms: _79  and  _82
REMARK   34  A    between atoms: _82  and  _83
REMARK   35  A    between atoms: _86  and  _88
REMARK   36  A    between atoms: _88  and  _89
REMARK   37  A    between atoms: _91  and  _93
REMARK   38  A    between atoms: _93  and  _94
REMARK   39  A    between atoms: _97  and  _99
REMARK   40  A    between atoms: _99  and  _100
REMARK   41  A    between atoms: _99  and  _102
REMARK   42  A    between atoms: _102  and  _103
REMARK   43  A    between atoms: _106  and  _108
REMARK   44  A    between atoms: _108  and  _109
REMARK   45  A    between atoms: _108  and  _111
REMARK   46  A    between atoms: _111  and  _112
REMARK   47  A    between atoms: _115  and  _117
REMARK   48  A    between atoms: _117  and  _118
REMARK   49  A    between atoms: _117  and  _120
REMARK   50  A    between atoms: _120  and  _121
REMARK   51  A    between atoms: _124  and  _126
REMARK   52  A    between atoms: _126  and  _127
REMARK   53  A    between atoms: _129  and  _131
REMARK   54  A    between atoms: _131  and  _132
REMARK   55  A    between atoms: _134  and  _136
REMARK   56  A    between atoms: _136  and  _137
REMARK   57  A    between atoms: _136  and  _139
REMARK   58  A    between atoms: _139  and  _140
REMARK   59  A    between atoms: _143  and  _145
REMARK   60  A    between atoms: _145  and  _146
REMARK   61  A    between atoms: _148  and  _150
REMARK   62  A    between atoms: _150  and  _151
REMARK   63  A    between atoms: _153  and  _155
REMARK   64  A    between atoms: _155  and  _156
REMARK   65  A    between atoms: _155  and  _158
REMARK   66  A    between atoms: _158  and  _159
REMARK   67  A    between atoms: _163  and  _164
REMARK   68  A    between atoms: _169  and  _171
REMARK   69  A    between atoms: _171  and  _172
REMARK   70  A    between atoms: _171  and  _174
REMARK   71  A    between atoms: _177  and  _179
REMARK   72  A    between atoms: _179  and  _180
REMARK   73  A    between atoms: _179  and  _182
REMARK   74  A    between atoms: _182  and  _183
REMARK   75  A    between atoms: _188  and  _190
REMARK   76  A    between atoms: _190  and  _191
REMARK   77  A    between atoms: _190  and  _193
REMARK   78  A    between atoms: _193  and  _194
REMARK   79  A    between atoms: _197  and  _199
REMARK   80  A    between atoms: _199  and  _200
REMARK   81  A    between atoms: _199  and  _202
REMARK   82  A    between atoms: _202  and  _203
REMARK   83  A    between atoms: _206  and  _208
REMARK   84  A    between atoms: _208  and  _209
REMARK   85  A    between atoms: _208  and  _211
REMARK   86  A    between atoms: _211  and  _212
REMARK   87  A    between atoms: _212  and  _213
REMARK   88  A    between atoms: _213  and  _214
REMARK   89  A    between atoms: _223  and  _225
REMARK   90  A    between atoms: _225  and  _226
REMARK   91  A    between atoms: _225  and  _228
REMARK   92  A    between atoms: _228  and  _229
REMARK   93  A    between atoms: _229  and  _230
REMARK   94  A    between atoms: _230  and  _231
REMARK   95  A    between atoms: _240  and  _242
REMARK   96  A    between atoms: _242  and  _243
REMARK   97  A    between atoms: _242  and  _245
REMARK   98  A    between atoms: _245  and  _246
REMARK   99  A    between atoms: _249  and  _251
REMARK  100  A    between atoms: _251  and  _252
REMARK  101  A    between atoms: _251  and  _254
REMARK  102  A    between atoms: _254  and  _255
REMARK  103  A    between atoms: _258  and  _260
REMARK  104  A    between atoms: _260  and  _261
REMARK  105  A    between atoms: _260  and  _263
REMARK  106  A    between atoms: _263  and  _264
REMARK  107  A    between atoms: _267  and  _269
REMARK  108  A    between atoms: _269  and  _270
REMARK  109  A    between atoms: _269  and  _272
REMARK  110  A    between atoms: _272  and  _273
REMARK  111  A    between atoms: _276  and  _278
REMARK  112  A    between atoms: _278  and  _279
REMARK  113  A    between atoms: _281  and  _283
REMARK  114  A    between atoms: _283  and  _284
REMARK  115  A    between atoms: _287  and  _289
REMARK  116  A    between atoms: _289  and  _290
REMARK  117  A    between atoms: _289  and  _292
REMARK  118  A    between atoms: _292  and  _293
REMARK  119  A    between atoms: _296  and  _298
REMARK  120  A    between atoms: _298  and  _299
REMARK  121  A    between atoms: _298  and  _301
REMARK  122  A    between atoms: _301  and  _302
REMARK  123  A    between atoms: _305  and  _307
REMARK  124  A    between atoms: _307  and  _308
REMARK  125  A    between atoms: _307  and  _310
REMARK  126  A    between atoms: _310  and  _311
REMARK  127  A    between atoms: _314  and  _316
REMARK  128  A    between atoms: _316  and  _317
REMARK  129  A    between atoms: _316  and  _319
REMARK  130  A    between atoms: _322  and  _324
REMARK  131  A    between atoms: _324  and  _325
REMARK  132  A    between atoms: _324  and  _327
REMARK  133  A    between atoms: _327  and  _328
REMARK  134  A    between atoms: _328  and  _329
REMARK  135  A    between atoms: _329  and  _330
REMARK  136  A    between atoms: _330  and  _331
REMARK  137  A    between atoms: _335  and  _337
REMARK  138  A    between atoms: _337  and  _338
REMARK  139  A    between atoms: _337  and  _340
REMARK  140  A    between atoms: _340  and  _341
REMARK  141  A    between atoms: _341  and  _342
REMARK  142  A    between atoms: _344  and  _346
REMARK  143  A    between atoms: _346  and  _347
REMARK  144  A    between atoms: _346  and  _349
REMARK  145  A    between atoms: _349  and  _350
REMARK  146  A    between atoms: _353  and  _355
REMARK  147  A    between atoms: _355  and  _356
REMARK  148  A    between atoms: _358  and  _360
REMARK  149  A    between atoms: _360  and  _361
REMARK  150  A    between atoms: _363  and  _365
REMARK  151  A    between atoms: _365  and  _366
REMARK  152  A    between atoms: _365  and  _368
REMARK  153  A    between atoms: _368  and  _369
REMARK  154  A    between atoms: _372  and  _374
REMARK  155  A    between atoms: _374  and  _375
REMARK  156  A    between atoms: _377  and  _379
REMARK  157  A    between atoms: _379  and  _380
REMARK  158  A    between atoms: _382  and  _384
REMARK  159  A    between atoms: _384  and  _385
REMARK  160  A    between atoms: _384  and  _387
REMARK  161  A    between atoms: _387  and  _388
REMARK  162  A    between atoms: _394  and  _396
REMARK  163  A    between atoms: _396  and  _397
REMARK  164  A    between atoms: _396  and  _399
REMARK  165  A    between atoms: _399  and  _400
REMARK  166  A    between atoms: _403  and  _405
REMARK  167  A    between atoms: _405  and  _406
REMARK  168  A    between atoms: _405  and  _408
REMARK  169  A    between atoms: _408  and  _409
REMARK  170  A    between atoms: _412  and  _414
REMARK  171  A    between atoms: _414  and  _415
REMARK  172  A    between atoms: _414  and  _417
REMARK  173  A    between atoms: _417  and  _418
REMARK  174  A    between atoms: _422  and  _423
REMARK  175  A    between atoms: _428  and  _430
REMARK  176  A    between atoms: _430  and  _431
REMARK  177  A    between atoms: _430  and  _433
REMARK  178  A    between atoms: _436  and  _438
REMARK  179  A    between atoms: _438  and  _439
REMARK  180  A    between atoms: _438  and  _441
REMARK  181  A    between atoms: _441  and  _442
REMARK  182  A    between atoms: _447  and  _449
REMARK  183  A    between atoms: _449  and  _450
REMARK  184  A    between atoms: _449  and  _452
REMARK  185  A    between atoms: _452  and  _453
REMARK  186  A    between atoms: _456  and  _458
REMARK  187  A    between atoms: _458  and  _459
REMARK  188  A    between atoms: _458  and  _461
REMARK  189  A    between atoms: _461  and  _462
REMARK  190  A    between atoms: _465  and  _467
REMARK  191  A    between atoms: _467  and  _468
REMARK  192  A    between atoms: _470  and  _472
REMARK  193  A    between atoms: _472  and  _473
REMARK  194  A    between atoms: _472  and  _475
REMARK  195  A    between atoms: _475  and  _476
REMARK  196  A    between atoms: _476  and  _477
REMARK  197  A    between atoms: _477  and  _478
REMARK  198  A    between atoms: _487  and  _489
REMARK  199  A    between atoms: _489  and  _490
REMARK  200  A    between atoms: _489  and  _492
REMARK  201  A    between atoms: _492  and  _493
REMARK                            x       y       z     vdW  Elec       q    Type
REMARK                         _______ _______ _______ _____ _____    ______ ____
ROOT
ATOM      1  O   HOH     1      15.480  16.627  12.163  0.00  0.00    +0.000 OA
ENDROOT
TORSDOF 0
REMARK  Name = ../refined-set-2016/1hpo/1hpo_pocket.pdb
REMARK  201 active torsions:
REMARK  status: ('A' for Active; 'I' for Inactive)
REMARK    1  A    between atoms: _1  and  _3
REMARK    2  A    between atoms: _3  and  _4
REMARK    3  A    between atoms: _3  and  _6
REMARK    4  A    between atoms: _6  and  _7
REMARK    5  A    between atoms: _7  and  _8
REMARK    6  A    between atoms: _8  and  _9
REMARK    7  A    between atoms: _19  and  _20
REMARK    8  A    between atoms: _25  and  _27
REMARK    9  A    between atoms: _27  and  _28
REMARK   10  A    between atoms: _27  and  _30
REMARK   11  A    between atoms: _30  and  _31
REMARK   12  A    between atoms: _34  and  _36
REMARK   13  A    between atoms: _36  and  _37
REMARK   14  A    between atoms: _36  and  _39
REMARK   15  A    between atoms: _39  and  _40
REMARK   16  A    between atoms: _40  and  _41
REMARK   17  A    between atoms: _44  and  _46
REMARK   18  A    between atoms: _46  and  _47
REMARK   19  A    between atoms: _50  and  _52
REMARK   20  A    between atoms: _52  and  _53
REMARK   21  A    between atoms: _52  and  _55
REMARK   22  A    between atoms: _55  and  _56
REMARK   23  A    between atoms: _59  and  _61
REMARK   24  A    between atoms: _61  and  _62
REMARK   25  A    between atoms: _61  and  _64
REMARK   26  A    between atoms: _64  and  _65
REMARK   27  A    between atoms: _68  and  _70
REMARK   28  A    between atoms: _70  and  _71
REMARK   29  A    between atoms: _70  and  _73
REMARK   30  A    between atoms: _73  and  _74
REMARK   31  A    between atoms: _77  and  _79
REMARK   32  A    between atoms: _79  and  _80
REMARK   33  A    between atoms: _79  and  _82
REMARK   34  A    between atoms: _82  and  _83
REMARK   35  A    between atoms: _86  and  _88
REMARK   36  A    between atoms: _88  and  _89
REMARK   37  A    between atoms: _91  and  _93
REMARK   38  A    between atoms: _93  and  _94
REMARK   39  A    between atoms: _97  and  _99
REMARK   40  A    between atoms: _99  and  _100
REMARK   41  A    between atoms: _99  and  _102
REMARK   42  A    between atoms: _102  and  _103
REMARK   43  A    between atoms: _106  and  _108
REMARK   44  A    between atoms: _108  and  _109
REMARK   45  A    between atoms: _108  and  _111
REMARK   46  A    between atoms: _111  and  _112
REMARK   47  A    between atoms: _115  and  _117
REMARK   48  A    between atoms: _117  and  _118
REMARK   49  A    between atoms: _117  and  _120
REMARK   50  A    between atoms: _120  and  _121
REMARK   51  A    between atoms: _124  and  _126
REMARK   52  A    between atoms: _126  and  _127
REMARK   53  A    between atoms: _129  and  _131
REMARK   54  A    between atoms: _131  and  _132
REMARK   55  A    between atoms: _134  and  _136
REMARK   56  A    between atoms: _136  and  _137
REMARK   57  A    between atoms: _136  and  _139
REMARK   58  A    between atoms: _139  and  _140
REMARK   59  A    between atoms: _143  and  _145
REMARK   60  A    between atoms: _145  and  _146
REMARK   61  A    between atoms: _148  and  _150
REMARK   62  A    between atoms: _150  and  _151
REMARK   63  A    between atoms: _153  and  _155
REMARK   64  A    between atoms: _155  and  _156
REMARK   65  A    between atoms: _155  and  _158
REMARK   66  A    between atoms: _158  and  _159
REMARK   67  A    between atoms: _163  and  _164
REMARK   68  A    between atoms: _169  and  _171
REMARK   69  A    between atoms: _171  and  _172
REMARK   70  A    between atoms: _171  and  _174
REMARK   71  A    between atoms: _177  and  _179
REMARK   72  A    between atoms: _179  and  _180
REMARK   73  A    between atoms: _179  and  _182
REMARK   74  A    between atoms: _182  and  _183
REMARK   75  A    between atoms: _188  and  _190
REMARK   76  A    between atoms: _190  and  _191
REMARK   77  A    between atoms: _190  and  _193
REMARK   78  A    between atoms: _193  and  _194
REMARK   79  A    between atoms: _197  and  _199
REMARK   80  A    between atoms: _199  and  _200
REMARK   81  A    between atoms: _199  and  _202
REMARK   82  A    between atoms: _202  and  _203
REMARK   83  A    between atoms: _206  and  _208
REMARK   84  A    between atoms: _208  and  _209
REMARK   85  A    between atoms: _208  and  _211
REMARK   86  A    between atoms: _211  and  _212
REMARK   87  A    between atoms: _212  and  _213
REMARK   88  A    between atoms: _213  and  _214
REMARK   89  A    between atoms: _223  and  _225
REMARK   90  A    between atoms: _225  and  _226
REMARK   91  A    between atoms: _225  and  _228
REMARK   92  A    between atoms: _228  and  _229
REMARK   93  A    between atoms: _229  and  _230
REMARK   94  A    between atoms: _230  and  _231
REMARK   95  A    between atoms: _240  and  _242
REMARK   96  A    between atoms: _242  and  _243
REMARK   97  A    between atoms: _242  and  _245
REMARK   98  A    between atoms: _245  and  _246
REMARK   99  A    between atoms: _249  and  _251
REMARK  100  A    between atoms: _251  and  _252
REMARK  101  A    between atoms: _251  and  _254
REMARK  102  A    between atoms: _254  and  _255
REMARK  103  A    between atoms: _258  and  _260
REMARK  104  A    between atoms: _260  and  _261
REMARK  105  A    between atoms: _260  and  _263
REMARK  106  A    between atoms: _263  and  _264
REMARK  107  A    between atoms: _267  and  _269
REMARK  108  A    between atoms: _269  and  _270
REMARK  109  A    between atoms: _269  and  _272
REMARK  110  A    between atoms: _272  and  _273
REMARK  111  A    between atoms: _276  and  _278
REMARK  112  A    between atoms: _278  and  _279
REMARK  113  A    between atoms: _281  and  _283
REMARK  114  A    between atoms: _283  and  _284
REMARK  115  A    between atoms: _287  and  _289
REMARK  116  A    between atoms: _289  and  _290
REMARK  117  A    between atoms: _289  and  _292
REMARK  118  A    between atoms: _292  and  _293
REMARK  119  A    between atoms: _296  and  _298
REMARK  120  A    between atoms: _298  and  _299
REMARK  121  A    between atoms: _298  and  _301
REMARK  122  A    between atoms: _301  and  _302
REMARK  123  A    between atoms: _305  and  _307
REMARK  124  A    between atoms: _307  and  _308
REMARK  125  A    between atoms: _307  and  _310
REMARK  126  A    between atoms: _310  and  _311
REMARK  127  A    between atoms: _314  and  _316
REMARK  128  A    between atoms: _316  and  _317
REMARK  129  A    between atoms: _316  and  _319
REMARK  130  A    between atoms: _322  and  _324
REMARK  131  A    between atoms: _324  and  _325
REMARK  132  A    between atoms: _324  and  _327
REMARK  133  A    between atoms: _327  and  _328
REMARK  134  A    between atoms: _328  and  _329
REMARK  135  A    between atoms: _329  and  _330
REMARK  136  A    between atoms: _330  and  _331
REMARK  137  A    between atoms: _335  and  _337
REMARK  138  A    between atoms: _337  and  _338
REMARK  139  A    between atoms: _337  and  _340
REMARK  140  A    between atoms: _340  and  _341
REMARK  141  A    between atoms: _341  and  _342
REMARK  142  A    between atoms: _344  and  _346
REMARK  143  A    between atoms: _346  and  _347
REMARK  144  A    between atoms: _346  and  _349
REMARK  145  A    between atoms: _349  and  _350
REMARK  146  A    between atoms: _353  and  _355
REMARK  147  A    between atoms: _355  and  _356
REMARK  148  A    between atoms: _358  and  _360
REMARK  149  A    between atoms: _360  and  _361
REMARK  150  A    between atoms: _363  and  _365
REMARK  151  A    between atoms: _365  and  _366
REMARK  152  A    between atoms: _365  and  _368
REMARK  153  A    between atoms: _368  and  _369
REMARK  154  A    between atoms: _372  and  _374
REMARK  155  A    between atoms: _374  and  _375
REMARK  156  A    between atoms: _377  and  _379
REMARK  157  A    between atoms: _379  and  _380
REMARK  158  A    between atoms: _382  and  _384
REMARK  159  A    between atoms: _384  and  _385
REMARK  160  A    between atoms: _384  and  _387
REMARK  161  A    between atoms: _387  and  _388
REMARK  162  A    between atoms: _394  and  _396
REMARK  163  A    between atoms: _396  and  _397
REMARK  164  A    between atoms: _396  and  _399
REMARK  165  A    between atoms: _399  and  _400
REMARK  166  A    between atoms: _403  and  _405
REMARK  167  A    between atoms: _405  and  _406
REMARK  168  A    between atoms: _405  and  _408
REMARK  169  A    between atoms: _408  and  _409
REMARK  170  A    between atoms: _412  and  _414
REMARK  171  A    between atoms: _414  and  _415
REMARK  172  A    between atoms: _414  and  _417
REMARK  173  A    between atoms: _417  and  _418
REMARK  174  A    between atoms: _422  and  _423
REMARK  175  A    between atoms: _428  and  _430
REMARK  176  A    between atoms: _430  and  _431
REMARK  177  A    between atoms: _430  and  _433
REMARK  178  A    between atoms: _436  and  _438
REMARK  179  A    between atoms: _438  and  _439
REMARK  180  A    between atoms: _438  and  _441
REMARK  181  A    between atoms: _441  and  _442
REMARK  182  A    between atoms: _447  and  _449
REMARK  183  A    between atoms: _449  and  _450
REMARK  184  A    between atoms: _449  and  _452
REMARK  185  A    between atoms: _452  and  _453
REMARK  186  A    between atoms: _456  and  _458
REMARK  187  A    between atoms: _458  and  _459
REMARK  188  A    between atoms: _458  and  _461
REMARK  189  A    between atoms: _461  and  _462
REMARK  190  A    between atoms: _465  and  _467
REMARK  191  A    between atoms: _467  and  _468
REMARK  192  A    between atoms: _470  and  _472
REMARK  193  A    between atoms: _472  and  _473
REMARK  194  A    between atoms: _472  and  _475
REMARK  195  A    between atoms: _475  and  _476
REMARK  196  A    between atoms: _476  and  _477
REMARK  197  A    between atoms: _477  and  _478
REMARK  198  A    between atoms: _487  and  _489
REMARK  199  A    between atoms: _489  and  _490
REMARK  200  A    between atoms: _489  and  _492
REMARK  201  A    between atoms: _492  and  _493
REMARK                            x       y       z     vdW  Elec       q    Type
REMARK                         _______ _______ _______ _____ _____    ______ ____
ROOT
ATOM      1  O   HOH     1       6.453  27.087   1.828  0.00  0.00    +0.000 OA
ENDROOT
TORSDOF 0
REMARK  Name = ../refined-set-2016/1hpo/1hpo_pocket.pdb
REMARK  201 active torsions:
REMARK  status: ('A' for Active; 'I' for Inactive)
REMARK    1  A    between atoms: _1  and  _3
REMARK    2  A    between atoms: _3  and  _4
REMARK    3  A    between atoms: _3  and  _6
REMARK    4  A    between atoms: _6  and  _7
REMARK    5  A    between atoms: _7  and  _8
REMARK    6  A    between atoms: _8  and  _9
REMARK    7  A    between atoms: _19  and  _20
REMARK    8  A    between atoms: _25  and  _27
REMARK    9  A    between atoms: _27  and  _28
REMARK   10  A    between atoms: _27  and  _30
REMARK   11  A    between atoms: _30  and  _31
REMARK   12  A    between atoms: _34  and  _36
REMARK   13  A    between atoms: _36  and  _37
REMARK   14  A    between atoms: _36  and  _39
REMARK   15  A    between atoms: _39  and  _40
REMARK   16  A    between atoms: _40  and  _41
REMARK   17  A    between atoms: _44  and  _46
REMARK   18  A    between atoms: _46  and  _47
REMARK   19  A    between atoms: _50  and  _52
REMARK   20  A    between atoms: _52  and  _53
REMARK   21  A    between atoms: _52  and  _55
REMARK   22  A    between atoms: _55  and  _56
REMARK   23  A    between atoms: _59  and  _61
REMARK   24  A    between atoms: _61  and  _62
REMARK   25  A    between atoms: _61  and  _64
REMARK   26  A    between atoms: _64  and  _65
REMARK   27  A    between atoms: _68  and  _70
REMARK   28  A    between atoms: _70  and  _71
REMARK   29  A    between atoms: _70  and  _73
REMARK   30  A    between atoms: _73  and  _74
REMARK   31  A    between atoms: _77  and  _79
REMARK   32  A    between atoms: _79  and  _80
REMARK   33  A    between atoms: _79  and  _82
REMARK   34  A    between atoms: _82  and  _83
REMARK   35  A    between atoms: _86  and  _88
REMARK   36  A    between atoms: _88  and  _89
REMARK   37  A    between atoms: _91  and  _93
REMARK   38  A    between atoms: _93  and  _94
REMARK   39  A    between atoms: _97  and  _99
REMARK   40  A    between atoms: _99  and  _100
REMARK   41  A    between atoms: _99  and  _102
REMARK   42  A    between atoms: _102  and  _103
REMARK   43  A    between atoms: _106  and  _108
REMARK   44  A    between atoms: _108  and  _109
REMARK   45  A    between atoms: _108  and  _111
REMARK   46  A    between atoms: _111  and  _112
REMARK   47  A    between atoms: _115  and  _117
REMARK   48  A    between atoms: _117  and  _118
REMARK   49  A    between atoms: _117  and  _120
REMARK   50  A    between atoms: _120  and  _121
REMARK   51  A    between atoms: _124  and  _126
REMARK   52  A    between atoms: _126  and  _127
REMARK   53  A    between atoms: _129  and  _131
REMARK   54  A    between atoms: _131  and  _132
REMARK   55  A    between atoms: _134  and  _136
REMARK   56  A    between atoms: _136  and  _137
REMARK   57  A    between atoms: _136  and  _139
REMARK   58  A    between atoms: _139  and  _140
REMARK   59  A    between atoms: _143  and  _145
REMARK   60  A    between atoms: _145  and  _146
REMARK   61  A    between atoms: _148  and  _150
REMARK   62  A    between atoms: _150  and  _151
REMARK   63  A    between atoms: _153  and  _155
REMARK   64  A    between atoms: _155  and  _156
REMARK   65  A    between atoms: _155  and  _158
REMARK   66  A    between atoms: _158  and  _159
REMARK   67  A    between atoms: _163  and  _164
REMARK   68  A    between atoms: _169  and  _171
REMARK   69  A    between atoms: _171  and  _172
REMARK   70  A    between atoms: _171  and  _174
REMARK   71  A    between atoms: _177  and  _179
REMARK   72  A    between atoms: _179  and  _180
REMARK   73  A    between atoms: _179  and  _182
REMARK   74  A    between atoms: _182  and  _183
REMARK   75  A    between atoms: _188  and  _190
REMARK   76  A    between atoms: _190  and  _191
REMARK   77  A    between atoms: _190  and  _193
REMARK   78  A    between atoms: _193  and  _194
REMARK   79  A    between atoms: _197  and  _199
REMARK   80  A    between atoms: _199  and  _200
REMARK   81  A    between atoms: _199  and  _202
REMARK   82  A    between atoms: _202  and  _203
REMARK   83  A    between atoms: _206  and  _208
REMARK   84  A    between atoms: _208  and  _209
REMARK   85  A    between atoms: _208  and  _211
REMARK   86  A    between atoms: _211  and  _212
REMARK   87  A    between atoms: _212  and  _213
REMARK   88  A    between atoms: _213  and  _214
REMARK   89  A    between atoms: _223  and  _225
REMARK   90  A    between atoms: _225  and  _226
REMARK   91  A    between atoms: _225  and  _228
REMARK   92  A    between atoms: _228  and  _229
REMARK   93  A    between atoms: _229  and  _230
REMARK   94  A    between atoms: _230  and  _231
REMARK   95  A    between atoms: _240  and  _242
REMARK   96  A    between atoms: _242  and  _243
REMARK   97  A    between atoms: _242  and  _245
REMARK   98  A    between atoms: _245  and  _246
REMARK   99  A    between atoms: _249  and  _251
REMARK  100  A    between atoms: _251  and  _252
REMARK  101  A    between atoms: _251  and  _254
REMARK  102  A    between atoms: _254  and  _255
REMARK  103  A    between atoms: _258  and  _260
REMARK  104  A    between atoms: _260  and  _261
REMARK  105  A    between atoms: _260  and  _263
REMARK  106  A    between atoms: _263  and  _264
REMARK  107  A    between atoms: _267  and  _269
REMARK  108  A    between atoms: _269  and  _270
REMARK  109  A    between atoms: _269  and  _272
REMARK  110  A    between atoms: _272  and  _273
REMARK  111  A    between atoms: _276  and  _278
REMARK  112  A    between atoms: _278  and  _279
REMARK  113  A    between atoms: _281  and  _283
REMARK  114  A    between atoms: _283  and  _284
REMARK  115  A    between atoms: _287  and  _289
REMARK  116  A    between atoms: _289  and  _290
REMARK  117  A    between atoms: _289  and  _292
REMARK  118  A    between atoms: _292  and  _293
REMARK  119  A    between atoms: _296  and  _298
REMARK  120  A    between atoms: _298  and  _299
REMARK  121  A    between atoms: _298  and  _301
REMARK  122  A    between atoms: _301  and  _302
REMARK  123  A    between atoms: _305  and  _307
REMARK  124  A    between atoms: _307  and  _308
REMARK  125  A    between atoms: _307  and  _310
REMARK  126  A    between atoms: _310  and  _311
REMARK  127  A    between atoms: _314  and  _316
REMARK  128  A    between atoms: _316  and  _317
REMARK  129  A    between atoms: _316  and  _319
REMARK  130  A    between atoms: _322  and  _324
REMARK  131  A    between atoms: _324  and  _325
REMARK  132  A    between atoms: _324  and  _327
REMARK  133  A    between atoms: _327  and  _328
REMARK  134  A    between atoms: _328  and  _329
REMARK  135  A    between atoms: _329  and  _330
REMARK  136  A    between atoms: _330  and  _331
REMARK  137  A    between atoms: _335  and  _337
REMARK  138  A    between atoms: _337  and  _338
REMARK  139  A    between atoms: _337  and  _340
REMARK  140  A    between atoms: _340  and  _341
REMARK  141  A    between atoms: _341  and  _342
REMARK  142  A    between atoms: _344  and  _346
REMARK  143  A    between atoms: _346  and  _347
REMARK  144  A    between atoms: _346  and  _349
REMARK  145  A    between atoms: _349  and  _350
REMARK  146  A    between atoms: _353  and  _355
REMARK  147  A    between atoms: _355  and  _356
REMARK  148  A    between atoms: _358  and  _360
REMARK  149  A    between atoms: _360  and  _361
REMARK  150  A    between atoms: _363  and  _365
REMARK  151  A    between atoms: _365  and  _366
REMARK  152  A    between atoms: _365  and  _368
REMARK  153  A    between atoms: _368  and  _369
REMARK  154  A    between atoms: _372  and  _374
REMARK  155  A    between atoms: _374  and  _375
REMARK  156  A    between atoms: _377  and  _379
REMARK  157  A    between atoms: _379  and  _380
REMARK  158  A    between atoms: _382  and  _384
REMARK  159  A    between atoms: _384  and  _385
REMARK  160  A    between atoms: _384  and  _387
REMARK  161  A    between atoms: _387  and  _388
REMARK  162  A    between atoms: _394  and  _396
REMARK  163  A    between atoms: _396  and  _397
REMARK  164  A    between atoms: _396  and  _399
REMARK  165  A    between atoms: _399  and  _400
REMARK  166  A    between atoms: _403  and  _405
REMARK  167  A    between atoms: _405  and  _406
REMARK  168  A    between atoms: _405  and  _408
REMARK  169  A    between atoms: _408  and  _409
REMARK  170  A    between atoms: _412  and  _414
REMARK  171  A    between atoms: _414  and  _415
REMARK  172  A    between atoms: _414  and  _417
REMARK  173  A    between atoms: _417  and  _418
REMARK  174  A    between atoms: _422  and  _423
REMARK  175  A    between atoms: _428  and  _430
REMARK  176  A    between atoms: _430  and  _431
REMARK  177  A    between atoms: _430  and  _433
REMARK  178  A    between atoms: _436  and  _438
REMARK  179  A    between atoms: _438  and  _439
REMARK  180  A    between atoms: _438  and  _441
REMARK  181  A    between atoms: _441  and  _442
REMARK  182  A    between atoms: _447  and  _449
REMARK  183  A    between atoms: _449  and  _450
REMARK  184  A    between atoms: _449  and  _452
REMARK  185  A    between atoms: _452  and  _453
REMARK  186  A    between atoms: _456  and  _458
REMARK  187  A    between atoms: _458  and  _459
REMARK  188  A    between atoms: _458  and  _461
REMARK  189  A    between atoms: _461  and  _462
REMARK  190  A    between atoms: _465  and  _467
REMARK  191  A    between atoms: _467  and  _468
REMARK  192  A    between atoms: _470  and  _472
REMARK  193  A    between atoms: _472  and  _473
REMARK  194  A    between atoms: _472  and  _475
REMARK  195  A    between atoms: _475  and  _476
REMARK  196  A    between atoms: _476  and  _477
REMARK  197  A    between atoms: _477  and  _478
REMARK  198  A    between atoms: _487  and  _489
REMARK  199  A    between atoms: _489  and  _490
REMARK  200  A    between atoms: _489  and  _492
REMARK  201  A    between atoms: _492  and  _493
REMARK                            x       y       z     vdW  Elec       q    Type
REMARK                         _______ _______ _______ _____ _____    ______ ____
ROOT
ATOM      1  O   HOH     1      25.136  16.654   0.046  0.00  0.00    +0.000 OA
ENDROOT
TORSDOF 0
REMARK  Name = ../refined-set-2016/1hpo/1hpo_pocket.pdb
REMARK  201 active torsions:
REMARK  status: ('A' for Active; 'I' for Inactive)
REMARK    1  A    between atoms: _1  and  _3
REMARK    2  A    between atoms: _3  and  _4
REMARK    3  A    between atoms: _3  and  _6
REMARK    4  A    between atoms: _6  and  _7
REMARK    5  A    between atoms: _7  and  _8
REMARK    6  A    between atoms: _8  and  _9
REMARK    7  A    between atoms: _19  and  _20
REMARK    8  A    between atoms: _25  and  _27
REMARK    9  A    between atoms: _27  and  _28
REMARK   10  A    between atoms: _27  and  _30
REMARK   11  A    between atoms: _30  and  _31
REMARK   12  A    between atoms: _34  and  _36
REMARK   13  A    between atoms: _36  and  _37
REMARK   14  A    between atoms: _36  and  _39
REMARK   15  A    between atoms: _39  and  _40
REMARK   16  A    between atoms: _40  and  _41
REMARK   17  A    between atoms: _44  and  _46
REMARK   18  A    between atoms: _46  and  _47
REMARK   19  A    between atoms: _50  and  _52
REMARK   20  A    between atoms: _52  and  _53
REMARK   21  A    between atoms: _52  and  _55
REMARK   22  A    between atoms: _55  and  _56
REMARK   23  A    between atoms: _59  and  _61
REMARK   24  A    between atoms: _61  and  _62
REMARK   25  A    between atoms: _61  and  _64
REMARK   26  A    between atoms: _64  and  _65
REMARK   27  A    between atoms: _68  and  _70
REMARK   28  A    between atoms: _70  and  _71
REMARK   29  A    between atoms: _70  and  _73
REMARK   30  A    between atoms: _73  and  _74
REMARK   31  A    between atoms: _77  and  _79
REMARK   32  A    between atoms: _79  and  _80
REMARK   33  A    between atoms: _79  and  _82
REMARK   34  A    between atoms: _82  and  _83
REMARK   35  A    between atoms: _86  and  _88
REMARK   36  A    between atoms: _88  and  _89
REMARK   37  A    between atoms: _91  and  _93
REMARK   38  A    between atoms: _93  and  _94
REMARK   39  A    between atoms: _97  and  _99
REMARK   40  A    between atoms: _99  and  _100
REMARK   41  A    between atoms: _99  and  _102
REMARK   42  A    between atoms: _102  and  _103
REMARK   43  A    between atoms: _106  and  _108
REMARK   44  A    between atoms: _108  and  _109
REMARK   45  A    between atoms: _108  and  _111
REMARK   46  A    between atoms: _111  and  _112
REMARK   47  A    between atoms: _115  and  _117
REMARK   48  A    between atoms: _117  and  _118
REMARK   49  A    between atoms: _117  and  _120
REMARK   50  A    between atoms: _120  and  _121
REMARK   51  A    between atoms: _124  and  _126
REMARK   52  A    between atoms: _126  and  _127
REMARK   53  A    between atoms: _129  and  _131
REMARK   54  A    between atoms: _131  and  _132
REMARK   55  A    between atoms: _134  and  _136
REMARK   56  A    between atoms: _136  and  _137
REMARK   57  A    between atoms: _136  and  _139
REMARK   58  A    between atoms: _139  and  _140
REMARK   59  A    between atoms: _143  and  _145
REMARK   60  A    between atoms: _145  and  _146
REMARK   61  A    between atoms: _148  and  _150
REMARK   62  A    between atoms: _150  and  _151
REMARK   63  A    between atoms: _153  and  _155
REMARK   64  A    between atoms: _155  and  _156
REMARK   65  A    between atoms: _155  and  _158
REMARK   66  A    between atoms: _158  and  _159
REMARK   67  A    between atoms: _163  and  _164
REMARK   68  A    between atoms: _169  and  _171
REMARK   69  A    between atoms: _171  and  _172
REMARK   70  A    between atoms: _171  and  _174
REMARK   71  A    between atoms: _177  and  _179
REMARK   72  A    between atoms: _179  and  _180
REMARK   73  A    between atoms: _179  and  _182
REMARK   74  A    between atoms: _182  and  _183
REMARK   75  A    between atoms: _188  and  _190
REMARK   76  A    between atoms: _190  and  _191
REMARK   77  A    between atoms: _190  and  _193
REMARK   78  A    between atoms: _193  and  _194
REMARK   79  A    between atoms: _197  and  _199
REMARK   80  A    between atoms: _199  and  _200
REMARK   81  A    between atoms: _199  and  _202
REMARK   82  A    between atoms: _202  and  _203
REMARK   83  A    between atoms: _206  and  _208
REMARK   84  A    between atoms: _208  and  _209
REMARK   85  A    between atoms: _208  and  _211
REMARK   86  A    between atoms: _211  and  _212
REMARK   87  A    between atoms: _212  and  _213
REMARK   88  A    between atoms: _213  and  _214
REMARK   89  A    between atoms: _223  and  _225
REMARK   90  A    between atoms: _225  and  _226
REMARK   91  A    between atoms: _225  and  _228
REMARK   92  A    between atoms: _228  and  _229
REMARK   93  A    between atoms: _229  and  _230
REMARK   94  A    between atoms: _230  and  _231
REMARK   95  A    between atoms: _240  and  _242
REMARK   96  A    between atoms: _242  and  _243
REMARK   97  A    between atoms: _242  and  _245
REMARK   98  A    between atoms: _245  and  _246
REMARK   99  A    between atoms: _249  and  _251
REMARK  100  A    between atoms: _251  and  _252
REMARK  101  A    between atoms: _251  and  _254
REMARK  102  A    between atoms: _254  and  _255
REMARK  103  A    between atoms: _258  and  _260
REMARK  104  A    between atoms: _260  and  _261
REMARK  105  A    between atoms: _260  and  _263
REMARK  106  A    between atoms: _263  and  _264
REMARK  107  A    between atoms: _267  and  _269
REMARK  108  A    between atoms: _269  and  _270
REMARK  109  A    between atoms: _269  and  _272
REMARK  110  A    between atoms: _272  and  _273
REMARK  111  A    between atoms: _276  and  _278
REMARK  112  A    between atoms: _278  and  _279
REMARK  113  A    between atoms: _281  and  _283
REMARK  114  A    between atoms: _283  and  _284
REMARK  115  A    between atoms: _287  and  _289
REMARK  116  A    between atoms: _289  and  _290
REMARK  117  A    between atoms: _289  and  _292
REMARK  118  A    between atoms: _292  and  _293
REMARK  119  A    between atoms: _296  and  _298
REMARK  120  A    between atoms: _298  and  _299
REMARK  121  A    between atoms: _298  and  _301
REMARK  122  A    between atoms: _301  and  _302
REMARK  123  A    between atoms: _305  and  _307
REMARK  124  A    between atoms: _307  and  _308
REMARK  125  A    between atoms: _307  and  _310
REMARK  126  A    between atoms: _310  and  _311
REMARK  127  A    between atoms: _314  and  _316
REMARK  128  A    between atoms: _316  and  _317
REMARK  129  A    between atoms: _316  and  _319
REMARK  130  A    between atoms: _322  and  _324
REMARK  131  A    between atoms: _324  and  _325
REMARK  132  A    between atoms: _324  and  _327
REMARK  133  A    between atoms: _327  and  _328
REMARK  134  A    between atoms: _328  and  _329
REMARK  135  A    between atoms: _329  and  _330
REMARK  136  A    between atoms: _330  and  _331
REMARK  137  A    between atoms: _335  and  _337
REMARK  138  A    between atoms: _337  and  _338
REMARK  139  A    between atoms: _337  and  _340
REMARK  140  A    between atoms: _340  and  _341
REMARK  141  A    between atoms: _341  and  _342
REMARK  142  A    between atoms: _344  and  _346
REMARK  143  A    between atoms: _346  and  _347
REMARK  144  A    between atoms: _346  and  _349
REMARK  145  A    between atoms: _349  and  _350
REMARK  146  A    between atoms: _353  and  _355
REMARK  147  A    between atoms: _355  and  _356
REMARK  148  A    between atoms: _358  and  _360
REMARK  149  A    between atoms: _360  and  _361
REMARK  150  A    between atoms: _363  and  _365
REMARK  151  A    between atoms: _365  and  _366
REMARK  152  A    between atoms: _365  and  _368
REMARK  153  A    between atoms: _368  and  _369
REMARK  154  A    between atoms: _372  and  _374
REMARK  155  A    between atoms: _374  and  _375
REMARK  156  A    between atoms: _377  and  _379
REMARK  157  A    between atoms: _379  and  _380
REMARK  158  A    between atoms: _382  and  _384
REMARK  159  A    between atoms: _384  and  _385
REMARK  160  A    between atoms: _384  and  _387
REMARK  161  A    between atoms: _387  and  _388
REMARK  162  A    between atoms: _394  and  _396
REMARK  163  A    between atoms: _396  and  _397
REMARK  164  A    between atoms: _396  and  _399
REMARK  165  A    between atoms: _399  and  _400
REMARK  166  A    between atoms: _403  and  _405
REMARK  167  A    between atoms: _405  and  _406
REMARK  168  A    between atoms: _405  and  _408
REMARK  169  A    between atoms: _408  and  _409
REMARK  170  A    between atoms: _412  and  _414
REMARK  171  A    between atoms: _414  and  _415
REMARK  172  A    between atoms: _414  and  _417
REMARK  173  A    between atoms: _417  and  _418
REMARK  174  A    between atoms: _422  and  _423
REMARK  175  A    between atoms: _428  and  _430
REMARK  176  A    between atoms: _430  and  _431
REMARK  177  A    between atoms: _430  and  _433
REMARK  178  A    between atoms: _436  and  _438
REMARK  179  A    between atoms: _438  and  _439
REMARK  180  A    between atoms: _438  and  _441
REMARK  181  A    between atoms: _441  and  _442
REMARK  182  A    between atoms: _447  and  _449
REMARK  183  A    between atoms: _449  and  _450
REMARK  184  A    between atoms: _449  and  _452
REMARK  185  A    between atoms: _452  and  _453
REMARK  186  A    between atoms: _456  and  _458
REMARK  187  A    between atoms: _458  and  _459
REMARK  188  A    between atoms: _458  and  _461
REMARK  189  A    between atoms: _461  and  _462
REMARK  190  A    between atoms: _465  and  _467
REMARK  191  A    between atoms: _467  and  _468
REMARK  192  A    between atoms: _470  and  _472
REMARK  193  A    between atoms: _472  and  _473
REMARK  194  A    between atoms: _472  and  _475
REMARK  195  A    between atoms: _475  and  _476
REMARK  196  A    between atoms: _476  and  _477
REMARK  197  A    between atoms: _477  and  _478
REMARK  198  A    between atoms: _487  and  _489
REMARK  199  A    between atoms: _489  and  _490
REMARK  200  A    between atoms: _489  and  _492
REMARK  201  A    between atoms: _492  and  _493
REMARK                            x       y       z     vdW  Elec       q    Type
REMARK                         _______ _______ _______ _____ _____    ______ ____
ROOT
ATOM      1  O   HOH     1      20.635  12.487   4.998  0.00  0.00    +0.000 OA
ENDROOT
TORSDOF 0
REMARK  Name = ../refined-set-2016/1hpo/1hpo_pocket.pdb
REMARK  201 active torsions:
REMARK  status: ('A' for Active; 'I' for Inactive)
REMARK    1  A    between atoms: _1  and  _3
REMARK    2  A    between atoms: _3  and  _4
REMARK    3  A    between atoms: _3  and  _6
REMARK    4  A    between atoms: _6  and  _7
REMARK    5  A    between atoms: _7  and  _8
REMARK    6  A    between atoms: _8  and  _9
REMARK    7  A    between atoms: _19  and  _20
REMARK    8  A    between atoms: _25  and  _27
REMARK    9  A    between atoms: _27  and  _28
REMARK   10  A    between atoms: _27  and  _30
REMARK   11  A    between atoms: _30  and  _31
REMARK   12  A    between atoms: _34  and  _36
REMARK   13  A    between atoms: _36  and  _37
REMARK   14  A    between atoms: _36  and  _39
REMARK   15  A    between atoms: _39  and  _40
REMARK   16  A    between atoms: _40  and  _41
REMARK   17  A    between atoms: _44  and  _46
REMARK   18  A    between atoms: _46  and  _47
REMARK   19  A    between atoms: _50  and  _52
REMARK   20  A    between atoms: _52  and  _53
REMARK   21  A    between atoms: _52  and  _55
REMARK   22  A    between atoms: _55  and  _56
REMARK   23  A    between atoms: _59  and  _61
REMARK   24  A    between atoms: _61  and  _62
REMARK   25  A    between atoms: _61  and  _64
REMARK   26  A    between atoms: _64  and  _65
REMARK   27  A    between atoms: _68  and  _70
REMARK   28  A    between atoms: _70  and  _71
REMARK   29  A    between atoms: _70  and  _73
REMARK   30  A    between atoms: _73  and  _74
REMARK   31  A    between atoms: _77  and  _79
REMARK   32  A    between atoms: _79  and  _80
REMARK   33  A    between atoms: _79  and  _82
REMARK   34  A    between atoms: _82  and  _83
REMARK   35  A    between atoms: _86  and  _88
REMARK   36  A    between atoms: _88  and  _89
REMARK   37  A    between atoms: _91  and  _93
REMARK   38  A    between atoms: _93  and  _94
REMARK   39  A    between atoms: _97  and  _99
REMARK   40  A    between atoms: _99  and  _100
REMARK   41  A    between atoms: _99  and  _102
REMARK   42  A    between atoms: _102  and  _103
REMARK   43  A    between atoms: _106  and  _108
REMARK   44  A    between atoms: _108  and  _109
REMARK   45  A    between atoms: _108  and  _111
REMARK   46  A    between atoms: _111  and  _112
REMARK   47  A    between atoms: _115  and  _117
REMARK   48  A    between atoms: _117  and  _118
REMARK   49  A    between atoms: _117  and  _120
REMARK   50  A    between atoms: _120  and  _121
REMARK   51  A    between atoms: _124  and  _126
REMARK   52  A    between atoms: _126  and  _127
REMARK   53  A    between atoms: _129  and  _131
REMARK   54  A    between atoms: _131  and  _132
REMARK   55  A    between atoms: _134  and  _136
REMARK   56  A    between atoms: _136  and  _137
REMARK   57  A    between atoms: _136  and  _139
REMARK   58  A    between atoms: _139  and  _140
REMARK   59  A    between atoms: _143  and  _145
REMARK   60  A    between atoms: _145  and  _146
REMARK   61  A    between atoms: _148  and  _150
REMARK   62  A    between atoms: _150  and  _151
REMARK   63  A    between atoms: _153  and  _155
REMARK   64  A    between atoms: _155  and  _156
REMARK   65  A    between atoms: _155  and  _158
REMARK   66  A    between atoms: _158  and  _159
REMARK   67  A    between atoms: _163  and  _164
REMARK   68  A    between atoms: _169  and  _171
REMARK   69  A    between atoms: _171  and  _172
REMARK   70  A    between atoms: _171  and  _174
REMARK   71  A    between atoms: _177  and  _179
REMARK   72  A    between atoms: _179  and  _180
REMARK   73  A    between atoms: _179  and  _182
REMARK   74  A    between atoms: _182  and  _183
REMARK   75  A    between atoms: _188  and  _190
REMARK   76  A    between atoms: _190  and  _191
REMARK   77  A    between atoms: _190  and  _193
REMARK   78  A    between atoms: _193  and  _194
REMARK   79  A    between atoms: _197  and  _199
REMARK   80  A    between atoms: _199  and  _200
REMARK   81  A    between atoms: _199  and  _202
REMARK   82  A    between atoms: _202  and  _203
REMARK   83  A    between atoms: _206  and  _208
REMARK   84  A    between atoms: _208  and  _209
REMARK   85  A    between atoms: _208  and  _211
REMARK   86  A    between atoms: _211  and  _212
REMARK   87  A    between atoms: _212  and  _213
REMARK   88  A    between atoms: _213  and  _214
REMARK   89  A    between atoms: _223  and  _225
REMARK   90  A    between atoms: _225  and  _226
REMARK   91  A    between atoms: _225  and  _228
REMARK   92  A    between atoms: _228  and  _229
REMARK   93  A    between atoms: _229  and  _230
REMARK   94  A    between atoms: _230  and  _231
REMARK   95  A    between atoms: _240  and  _242
REMARK   96  A    between atoms: _242  and  _243
REMARK   97  A    between atoms: _242  and  _245
REMARK   98  A    between atoms: _245  and  _246
REMARK   99  A    between atoms: _249  and  _251
REMARK  100  A    between atoms: _251  and  _252
REMARK  101  A    between atoms: _251  and  _254
REMARK  102  A    between atoms: _254  and  _255
REMARK  103  A    between atoms: _258  and  _260
REMARK  104  A    between atoms: _260  and  _261
REMARK  105  A    between atoms: _260  and  _263
REMARK  106  A    between atoms: _263  and  _264
REMARK  107  A    between atoms: _267  and  _269
REMARK  108  A    between atoms: _269  and  _270
REMARK  109  A    between atoms: _269  and  _272
REMARK  110  A    between atoms: _272  and  _273
REMARK  111  A    between atoms: _276  and  _278
REMARK  112  A    between atoms: _278  and  _279
REMARK  113  A    between atoms: _281  and  _283
REMARK  114  A    between atoms: _283  and  _284
REMARK  115  A    between atoms: _287  and  _289
REMARK  116  A    between atoms: _289  and  _290
REMARK  117  A    between atoms: _289  and  _292
REMARK  118  A    between atoms: _292  and  _293
REMARK  119  A    between atoms: _296  and  _298
REMARK  120  A    between atoms: _298  and  _299
REMARK  121  A    between atoms: _298  and  _301
REMARK  122  A    between atoms: _301  and  _302
REMARK  123  A    between atoms: _305  and  _307
REMARK  124  A    between atoms: _307  and  _308
REMARK  125  A    between atoms: _307  and  _310
REMARK  126  A    between atoms: _310  and  _311
REMARK  127  A    between atoms: _314  and  _316
REMARK  128  A    between atoms: _316  and  _317
REMARK  129  A    between atoms: _316  and  _319
REMARK  130  A    between atoms: _322  and  _324
REMARK  131  A    between atoms: _324  and  _325
REMARK  132  A    between atoms: _324  and  _327
REMARK  133  A    between atoms: _327  and  _328
REMARK  134  A    between atoms: _328  and  _329
REMARK  135  A    between atoms: _329  and  _330
REMARK  136  A    between atoms: _330  and  _331
REMARK  137  A    between atoms: _335  and  _337
REMARK  138  A    between atoms: _337  and  _338
REMARK  139  A    between atoms: _337  and  _340
REMARK  140  A    between atoms: _340  and  _341
REMARK  141  A    between atoms: _341  and  _342
REMARK  142  A    between atoms: _344  and  _346
REMARK  143  A    between atoms: _346  and  _347
REMARK  144  A    between atoms: _346  and  _349
REMARK  145  A    between atoms: _349  and  _350
REMARK  146  A    between atoms: _353  and  _355
REMARK  147  A    between atoms: _355  and  _356
REMARK  148  A    between atoms: _358  and  _360
REMARK  149  A    between atoms: _360  and  _361
REMARK  150  A    between atoms: _363  and  _365
REMARK  151  A    between atoms: _365  and  _366
REMARK  152  A    between atoms: _365  and  _368
REMARK  153  A    between atoms: _368  and  _369
REMARK  154  A    between atoms: _372  and  _374
REMARK  155  A    between atoms: _374  and  _375
REMARK  156  A    between atoms: _377  and  _379
REMARK  157  A    between atoms: _379  and  _380
REMARK  158  A    between atoms: _382  and  _384
REMARK  159  A    between atoms: _384  and  _385
REMARK  160  A    between atoms: _384  and  _387
REMARK  161  A    between atoms: _387  and  _388
REMARK  162  A    between atoms: _394  and  _396
REMARK  163  A    between atoms: _396  and  _397
REMARK  164  A    between atoms: _396  and  _399
REMARK  165  A    between atoms: _399  and  _400
REMARK  166  A    between atoms: _403  and  _405
REMARK  167  A    between atoms: _405  and  _406
REMARK  168  A    between atoms: _405  and  _408
REMARK  169  A    between atoms: _408  and  _409
REMARK  170  A    between atoms: _412  and  _414
REMARK  171  A    between atoms: _414  and  _415
REMARK  172  A    between atoms: _414  and  _417
REMARK  173  A    between atoms: _417  and  _418
REMARK  174  A    between atoms: _422  and  _423
REMARK  175  A    between atoms: _428  and  _430
REMARK  176  A    between atoms: _430  and  _431
REMARK  177  A    between atoms: _430  and  _433
REMARK  178  A    between atoms: _436  and  _438
REMARK  179  A    between atoms: _438  and  _439
REMARK  180  A    between atoms: _438  and  _441
REMARK  181  A    between atoms: _441  and  _442
REMARK  182  A    between atoms: _447  and  _449
REMARK  183  A    between atoms: _449  and  _450
REMARK  184  A    between atoms: _449  and  _452
REMARK  185  A    between atoms: _452  and  _453
REMARK  186  A    between atoms: _456  and  _458
REMARK  187  A    between atoms: _458  and  _459
REMARK  188  A    between atoms: _458  and  _461
REMARK  189  A    between atoms: _461  and  _462
REMARK  190  A    between atoms: _465  and  _467
REMARK  191  A    between atoms: _467  and  _468
REMARK  192  A    between atoms: _470  and  _472
REMARK  193  A    between atoms: _472  and  _473
REMARK  194  A    between atoms: _472  and  _475
REMARK  195  A    between atoms: _475  and  _476
REMARK  196  A    between atoms: _476  and  _477
REMARK  197  A    between atoms: _477  and  _478
REMARK  198  A    between atoms: _487  and  _489
REMARK  199  A    between atoms: _489  and  _490
REMARK  200  A    between atoms: _489  and  _492
REMARK  201  A    between atoms: _492  and  _493
REMARK                            x       y       z     vdW  Elec       q    Type
REMARK                         _______ _______ _______ _____ _____    ______ ____
ROOT
ATOM      1  O   HOH     1      21.787  10.544   8.338  0.00  0.00    +0.000 OA
ENDROOT
TORSDOF 0
