REMARK  Name = ../refined-set-2016/4cwt/4cwt_pocket.pdb
REMARK  231 active torsions:
REMARK  status: ('A' for Active; 'I' for Inactive)
REMARK    1  A    between atoms: _1  and  _3
REMARK    2  A    between atoms: _3  and  _4
REMARK    3  A    between atoms: _3  and  _6
REMARK    4  A    between atoms: _6  and  _7
REMARK    5  A    between atoms: _13  and  _15
REMARK    6  A    between atoms: _15  and  _16
REMARK    7  A    between atoms: _19  and  _21
REMARK    8  A    between atoms: _21  and  _22
REMARK    9  A    between atoms: _21  and  _24
REMARK   10  A    between atoms: _24  and  _25
REMARK   11  A    between atoms: _31  and  _33
REMARK   12  A    between atoms: _33  and  _34
REMARK   13  A    between atoms: _33  and  _36
REMARK   14  A    between atoms: _36  and  _37
REMARK   15  A    between atoms: _37  and  _38
REMARK   16  A    between atoms: _43  and  _45
REMARK   17  A    between atoms: _45  and  _46
REMARK   18  A    between atoms: _45  and  _48
REMARK   19  A    between atoms: _48  and  _49
REMARK   20  A    between atoms: _52  and  _54
REMARK   21  A    between atoms: _54  and  _55
REMARK   22  A    between atoms: _54  and  _57
REMARK   23  A    between atoms: _57  and  _58
REMARK   24  A    between atoms: _61  and  _63
REMARK   25  A    between atoms: _63  and  _64
REMARK   26  A    between atoms: _63  and  _66
REMARK   27  A    between atoms: _66  and  _67
REMARK   28  A    between atoms: _67  and  _68
REMARK   29  A    between atoms: _70  and  _72
REMARK   30  A    between atoms: _72  and  _73
REMARK   31  A    between atoms: _72  and  _75
REMARK   32  A    between atoms: _75  and  _76
REMARK   33  A    between atoms: _76  and  _77
REMARK   34  A    between atoms: _80  and  _82
REMARK   35  A    between atoms: _82  and  _83
REMARK   36  A    between atoms: _82  and  _85
REMARK   37  A    between atoms: _85  and  _86
REMARK   38  A    between atoms: _89  and  _91
REMARK   39  A    between atoms: _91  and  _92
REMARK   40  A    between atoms: _91  and  _94
REMARK   41  A    between atoms: _94  and  _95
REMARK   42  A    between atoms: _97  and  _99
REMARK   43  A    between atoms: _99  and  _100
REMARK   44  A    between atoms: _99  and  _102
REMARK   45  A    between atoms: _102  and  _103
REMARK   46  A    between atoms: _108  and  _110
REMARK   47  A    between atoms: _110  and  _111
REMARK   48  A    between atoms: _110  and  _113
REMARK   49  A    between atoms: _113  and  _114
REMARK   50  A    between atoms: _116  and  _118
REMARK   51  A    between atoms: _118  and  _119
REMARK   52  A    between atoms: _118  and  _121
REMARK   53  A    between atoms: _121  and  _122
REMARK   54  A    between atoms: _125  and  _127
REMARK   55  A    between atoms: _127  and  _128
REMARK   56  A    between atoms: _131  and  _133
REMARK   57  A    between atoms: _133  and  _134
REMARK   58  A    between atoms: _133  and  _136
REMARK   59  A    between atoms: _136  and  _137
REMARK   60  A    between atoms: _137  and  _138
REMARK   61  A    between atoms: _138  and  _139
REMARK   62  A    between atoms: _139  and  _140
REMARK   63  A    between atoms: _144  and  _146
REMARK   64  A    between atoms: _146  and  _147
REMARK   65  A    between atoms: _146  and  _149
REMARK   66  A    between atoms: _149  and  _150
REMARK   67  A    between atoms: _153  and  _155
REMARK   68  A    between atoms: _155  and  _156
REMARK   69  A    between atoms: _158  and  _160
REMARK   70  A    between atoms: _160  and  _161
REMARK   71  A    between atoms: _160  and  _163
REMARK   72  A    between atoms: _163  and  _164
REMARK   73  A    between atoms: _164  and  _165
REMARK   74  A    between atoms: _167  and  _169
REMARK   75  A    between atoms: _169  and  _170
REMARK   76  A    between atoms: _169  and  _172
REMARK   77  A    between atoms: _172  and  _173
REMARK   78  A    between atoms: _176  and  _178
REMARK   79  A    between atoms: _178  and  _179
REMARK   80  A    between atoms: _178  and  _181
REMARK   81  A    between atoms: _181  and  _182
REMARK   82  A    between atoms: _182  and  _183
REMARK   83  A    between atoms: _183  and  _184
REMARK   84  A    between atoms: _184  and  _185
REMARK   85  A    between atoms: _189  and  _191
REMARK   86  A    between atoms: _191  and  _192
REMARK   87  A    between atoms: _195  and  _197
REMARK   88  A    between atoms: _197  and  _198
REMARK   89  A    between atoms: _197  and  _200
REMARK   90  A    between atoms: _200  and  _201
REMARK   91  A    between atoms: _204  and  _206
REMARK   92  A    between atoms: _206  and  _207
REMARK   93  A    between atoms: _206  and  _209
REMARK   94  A    between atoms: _209  and  _210
REMARK   95  A    between atoms: _213  and  _215
REMARK   96  A    between atoms: _215  and  _216
REMARK   97  A    between atoms: _215  and  _218
REMARK   98  A    between atoms: _218  and  _219
REMARK   99  A    between atoms: _222  and  _224
REMARK  100  A    between atoms: _224  and  _225
REMARK  101  A    between atoms: _224  and  _227
REMARK  102  A    between atoms: _227  and  _228
REMARK  103  A    between atoms: _233  and  _235
REMARK  104  A    between atoms: _235  and  _236
REMARK  105  A    between atoms: _235  and  _238
REMARK  106  A    between atoms: _238  and  _239
REMARK  107  A    between atoms: _244  and  _246
REMARK  108  A    between atoms: _246  and  _247
REMARK  109  A    between atoms: _246  and  _249
REMARK  110  A    between atoms: _249  and  _250
REMARK  111  A    between atoms: _253  and  _255
REMARK  112  A    between atoms: _255  and  _256
REMARK  113  A    between atoms: _258  and  _260
REMARK  114  A    between atoms: _260  and  _261
REMARK  115  A    between atoms: _260  and  _263
REMARK  116  A    between atoms: _263  and  _264
REMARK  117  A    between atoms: _267  and  _269
REMARK  118  A    between atoms: _269  and  _270
REMARK  119  A    between atoms: _269  and  _272
REMARK  120  A    between atoms: _272  and  _273
REMARK  121  A    between atoms: _276  and  _278
REMARK  122  A    between atoms: _278  and  _279
REMARK  123  A    between atoms: _282  and  _284
REMARK  124  A    between atoms: _284  and  _285
REMARK  125  A    between atoms: _284  and  _287
REMARK  126  A    between atoms: _287  and  _288
REMARK  127  A    between atoms: _288  and  _289
REMARK  128  A    between atoms: _289  and  _290
REMARK  129  A    between atoms: _290  and  _291
REMARK  130  A    between atoms: _295  and  _297
REMARK  131  A    between atoms: _297  and  _298
REMARK  132  A    between atoms: _300  and  _302
REMARK  133  A    between atoms: _302  and  _303
REMARK  134  A    between atoms: _302  and  _305
REMARK  135  A    between atoms: _305  and  _306
REMARK  136  A    between atoms: _309  and  _311
REMARK  137  A    between atoms: _311  and  _312
REMARK  138  A    between atoms: _311  and  _314
REMARK  139  A    between atoms: _314  and  _315
REMARK  140  A    between atoms: _321  and  _323
REMARK  141  A    between atoms: _323  and  _324
REMARK  142  A    between atoms: _326  and  _328
REMARK  143  A    between atoms: _328  and  _329
REMARK  144  A    between atoms: _328  and  _331
REMARK  145  A    between atoms: _334  and  _336
REMARK  146  A    between atoms: _336  and  _337
REMARK  147  A    between atoms: _339  and  _341
REMARK  148  A    between atoms: _341  and  _342
REMARK  149  A    between atoms: _341  and  _344
REMARK  150  A    between atoms: _344  and  _345
REMARK  151  A    between atoms: _351  and  _353
REMARK  152  A    between atoms: _353  and  _354
REMARK  153  A    between atoms: _353  and  _356
REMARK  154  A    between atoms: _356  and  _357
REMARK  155  A    between atoms: _362  and  _363
REMARK  156  A    between atoms: _365  and  _367
REMARK  157  A    between atoms: _367  and  _368
REMARK  158  A    between atoms: _367  and  _370
REMARK  159  A    between atoms: _370  and  _371
REMARK  160  A    between atoms: _376  and  _377
REMARK  161  A    between atoms: _379  and  _381
REMARK  162  A    between atoms: _381  and  _382
REMARK  163  A    between atoms: _381  and  _384
REMARK  164  A    between atoms: _387  and  _389
REMARK  165  A    between atoms: _389  and  _390
REMARK  166  A    between atoms: _389  and  _392
REMARK  167  A    between atoms: _392  and  _393
REMARK  168  A    between atoms: _396  and  _398
REMARK  169  A    between atoms: _398  and  _399
REMARK  170  A    between atoms: _398  and  _401
REMARK  171  A    between atoms: _404  and  _406
REMARK  172  A    between atoms: _406  and  _407
REMARK  173  A    between atoms: _406  and  _409
REMARK  174  A    between atoms: _409  and  _410
REMARK  175  A    between atoms: _413  and  _415
REMARK  176  A    between atoms: _415  and  _416
REMARK  177  A    between atoms: _415  and  _418
REMARK  178  A    between atoms: _418  and  _419
REMARK  179  A    between atoms: _422  and  _424
REMARK  180  A    between atoms: _424  and  _425
REMARK  181  A    between atoms: _424  and  _427
REMARK  182  A    between atoms: _427  and  _428
REMARK  183  A    between atoms: _433  and  _435
REMARK  184  A    between atoms: _435  and  _436
REMARK  185  A    between atoms: _435  and  _438
REMARK  186  A    between atoms: _438  and  _439
REMARK  187  A    between atoms: _444  and  _445
REMARK  188  A    between atoms: _447  and  _449
REMARK  189  A    between atoms: _449  and  _450
REMARK  190  A    between atoms: _453  and  _455
REMARK  191  A    between atoms: _455  and  _456
REMARK  192  A    between atoms: _455  and  _458
REMARK  193  A    between atoms: _458  and  _459
REMARK  194  A    between atoms: _469  and  _471
REMARK  195  A    between atoms: _471  and  _472
REMARK  196  A    between atoms: _471  and  _474
REMARK  197  A    between atoms: _474  and  _475
REMARK  198  A    between atoms: _475  and  _476
REMARK  199  A    between atoms: _479  and  _481
REMARK  200  A    between atoms: _481  and  _482
REMARK  201  A    between atoms: _481  and  _484
REMARK  202  A    between atoms: _484  and  _485
REMARK  203  A    between atoms: _487  and  _489
REMARK  204  A    between atoms: _489  and  _490
REMARK  205  A    between atoms: _489  and  _492
REMARK  206  A    between atoms: _492  and  _493
REMARK  207  A    between atoms: _499  and  _501
REMARK  208  A    between atoms: _501  and  _502
REMARK  209  A    between atoms: _501  and  _504
REMARK  210  A    between atoms: _504  and  _505
REMARK  211  A    between atoms: _508  and  _510
REMARK  212  A    between atoms: _510  and  _511
REMARK  213  A    between atoms: _510  and  _513
REMARK  214  A    between atoms: _516  and  _518
REMARK  215  A    between atoms: _518  and  _519
REMARK  216  A    between atoms: _518  and  _521
REMARK  217  A    between atoms: _521  and  _522
REMARK  218  A    between atoms: _525  and  _527
REMARK  219  A    between atoms: _527  and  _528
REMARK  220  A    between atoms: _527  and  _530
REMARK  221  A    between atoms: _530  and  _531
REMARK  222  A    between atoms: _531  and  _532
REMARK  223  A    between atoms: _532  and  _533
REMARK  224  A    between atoms: _533  and  _534
REMARK  225  A    between atoms: _538  and  _540
REMARK  226  A    between atoms: _540  and  _541
REMARK  227  A    between atoms: _540  and  _543
REMARK  228  A    between atoms: _546  and  _548
REMARK  229  A    between atoms: _548  and  _549
REMARK  230  A    between atoms: _548  and  _551
REMARK  231  A    between atoms: _551  and  _552
REMARK                            x       y       z     vdW  Elec       q    Type
REMARK                         _______ _______ _______ _____ _____    ______ ____
ROOT
ATOM      1  CA  PHE A   3      16.386  17.837  25.444  0.00  0.00    +0.153 C 
ENDROOT
BRANCH   1   4
ATOM      2  C   ALA A   2      16.963  19.249  27.323  0.00  0.00    +0.241 C 
ATOM      3  O   ALA A   2      16.917  18.292  28.083  0.00  0.00    -0.273 OA
ATOM      4  N   PHE A   3      16.577  19.159  26.047  0.00  0.00    -0.297 N 
ATOM      5  H   PHE A   3      16.414  20.020  25.487  0.00  0.00    +0.150 HD
BRANCH   2   6
ATOM      6  CA  ALA A   2      17.460  20.607  27.838  0.00  0.00    +0.149 C 
ATOM      7  CB  ALA A   2      18.982  20.597  27.956  0.00  0.00    +0.031 C 
BRANCH   6   9
ATOM      8  C   PHE A   1      15.649  21.474  29.207  0.00  0.00    +0.239 C 
ATOM      9  N   ALA A   2      16.848  20.904  29.139  0.00  0.00    -0.297 N 
ATOM     10  H   ALA A   2      17.357  20.667  30.015  0.00  0.00    +0.150 HD
ATOM     11  O   PHE A   1      15.044  21.865  28.210  0.00  0.00    -0.274 OA
BRANCH   8  12
ATOM     12  CA  PHE A   1      15.001  21.567  30.590  0.00  0.00    +0.149 C 
BRANCH  12  13
ATOM     13  N   PHE A   1      14.160  22.750  30.692  0.00  0.00    -0.238 NA
ATOM     14  H   PHE A   1      13.401  22.886  29.994  0.00  0.00    +0.142 HD
ENDBRANCH  12  13
BRANCH  12  15
ATOM     15  CB  PHE A   1      14.160  20.296  30.805  0.00  0.00    +0.053 C 
BRANCH  15  16
ATOM     16  CG  PHE A   1      13.425  20.260  32.116  0.00  0.00    -0.020 A 
ATOM     17  CD2 PHE A   1      13.981  19.618  33.206  0.00  0.00    -0.004 A 
ATOM     18  CE2 PHE A   1      13.311  19.561  34.421  0.00  0.00    -0.000 A 
ATOM     19  CZ  PHE A   1      12.069  20.161  34.552  0.00  0.00    -0.000 A 
ATOM     20  CE1 PHE A   1      11.499  20.810  33.473  0.00  0.00    -0.000 A 
ATOM     21  CD1 PHE A   1      12.170  20.850  32.252  0.00  0.00    -0.004 A 
ENDBRANCH  15  16
ENDBRANCH  12  15
ENDBRANCH   8  12
ENDBRANCH   6   9
ENDBRANCH   2   6
ENDBRANCH   1   4
BRANCH   1  22
ATOM     22  C   PHE A   3      17.750  17.153  25.432  0.00  0.00    +0.241 C 
ATOM     23  N   GLN A   4      17.757  15.834  25.537  0.00  0.00    -0.298 N 
ATOM     24  H   GLN A   4      16.896  15.336  25.842  0.00  0.00    +0.150 HD
ATOM     25  O   PHE A   3      18.785  17.821  25.334  0.00  0.00    -0.273 OA
BRANCH  23  26
ATOM     26  CA  GLN A   4      18.960  15.074  25.229  0.00  0.00    +0.137 C 
BRANCH  26  27
ATOM     27  C   GLN A   4      19.367  15.376  23.784  0.00  0.00    +0.227 C 
ATOM     28  O   GLN A   4      18.518  15.681  22.937  0.00  0.00    -0.286 OA
ENDBRANCH  26  27
BRANCH  26  29
ATOM     29  CB  GLN A   4      18.681  13.597  25.338  0.00  0.00    +0.037 C 
BRANCH  29  30
ATOM     30  CG  GLN A   4      18.258  13.099  26.694  0.00  0.00    +0.087 C 
BRANCH  30  31
ATOM     31  CD  GLN A   4      17.637  11.729  26.552  0.00  0.00    +0.219 C 
ATOM     32  NE2 GLN A   4      18.473  10.696  26.567  0.00  0.00    -0.329 N 
ATOM     33 HE21 GLN A   4      19.487  10.850  26.742  0.00  0.00    +0.145 HD
ATOM     34 HE22 GLN A   4      18.114   9.734  26.404  0.00  0.00    +0.145 HD
ATOM     35  OE1 GLN A   4      16.426  11.608  26.350  0.00  0.00    -0.275 OA
ENDBRANCH  30  31
ENDBRANCH  29  30
ENDBRANCH  26  29
ENDBRANCH  23  26
ENDBRANCH   1  22
BRANCH   1  36
ATOM     36  CB  PHE A   3      15.898  17.935  23.995  0.00  0.00    +0.055 C 
BRANCH  36  37
ATOM     37  CG  PHE A   3      14.454  18.323  23.849  0.00  0.00    -0.020 A 
ATOM     38  CD2 PHE A   3      13.435  17.402  24.101  0.00  0.00    -0.004 A 
ATOM     39  CE2 PHE A   3      12.107  17.754  23.927  0.00  0.00    -0.000 A 
ATOM     40  CZ  PHE A   3      11.769  19.038  23.514  0.00  0.00    -0.000 A 
ATOM     41  CE1 PHE A   3      12.779  19.956  23.246  0.00  0.00    -0.000 A 
ATOM     42  CD1 PHE A   3      14.108  19.596  23.405  0.00  0.00    -0.004 A 
ENDBRANCH  36  37
ENDBRANCH   1  36
TORSDOF 15
REMARK  Name = ../refined-set-2016/4cwt/4cwt_pocket.pdb
REMARK  231 active torsions:
REMARK  status: ('A' for Active; 'I' for Inactive)
REMARK    1  A    between atoms: _1  and  _3
REMARK    2  A    between atoms: _3  and  _4
REMARK    3  A    between atoms: _3  and  _6
REMARK    4  A    between atoms: _6  and  _7
REMARK    5  A    between atoms: _13  and  _15
REMARK    6  A    between atoms: _15  and  _16
REMARK    7  A    between atoms: _19  and  _21
REMARK    8  A    between atoms: _21  and  _22
REMARK    9  A    between atoms: _21  and  _24
REMARK   10  A    between atoms: _24  and  _25
REMARK   11  A    between atoms: _31  and  _33
REMARK   12  A    between atoms: _33  and  _34
REMARK   13  A    between atoms: _33  and  _36
REMARK   14  A    between atoms: _36  and  _37
REMARK   15  A    between atoms: _37  and  _38
REMARK   16  A    between atoms: _43  and  _45
REMARK   17  A    between atoms: _45  and  _46
REMARK   18  A    between atoms: _45  and  _48
REMARK   19  A    between atoms: _48  and  _49
REMARK   20  A    between atoms: _52  and  _54
REMARK   21  A    between atoms: _54  and  _55
REMARK   22  A    between atoms: _54  and  _57
REMARK   23  A    between atoms: _57  and  _58
REMARK   24  A    between atoms: _61  and  _63
REMARK   25  A    between atoms: _63  and  _64
REMARK   26  A    between atoms: _63  and  _66
REMARK   27  A    between atoms: _66  and  _67
REMARK   28  A    between atoms: _67  and  _68
REMARK   29  A    between atoms: _70  and  _72
REMARK   30  A    between atoms: _72  and  _73
REMARK   31  A    between atoms: _72  and  _75
REMARK   32  A    between atoms: _75  and  _76
REMARK   33  A    between atoms: _76  and  _77
REMARK   34  A    between atoms: _80  and  _82
REMARK   35  A    between atoms: _82  and  _83
REMARK   36  A    between atoms: _82  and  _85
REMARK   37  A    between atoms: _85  and  _86
REMARK   38  A    between atoms: _89  and  _91
REMARK   39  A    between atoms: _91  and  _92
REMARK   40  A    between atoms: _91  and  _94
REMARK   41  A    between atoms: _94  and  _95
REMARK   42  A    between atoms: _97  and  _99
REMARK   43  A    between atoms: _99  and  _100
REMARK   44  A    between atoms: _99  and  _102
REMARK   45  A    between atoms: _102  and  _103
REMARK   46  A    between atoms: _108  and  _110
REMARK   47  A    between atoms: _110  and  _111
REMARK   48  A    between atoms: _110  and  _113
REMARK   49  A    between atoms: _113  and  _114
REMARK   50  A    between atoms: _116  and  _118
REMARK   51  A    between atoms: _118  and  _119
REMARK   52  A    between atoms: _118  and  _121
REMARK   53  A    between atoms: _121  and  _122
REMARK   54  A    between atoms: _125  and  _127
REMARK   55  A    between atoms: _127  and  _128
REMARK   56  A    between atoms: _131  and  _133
REMARK   57  A    between atoms: _133  and  _134
REMARK   58  A    between atoms: _133  and  _136
REMARK   59  A    between atoms: _136  and  _137
REMARK   60  A    between atoms: _137  and  _138
REMARK   61  A    between atoms: _138  and  _139
REMARK   62  A    between atoms: _139  and  _140
REMARK   63  A    between atoms: _144  and  _146
REMARK   64  A    between atoms: _146  and  _147
REMARK   65  A    between atoms: _146  and  _149
REMARK   66  A    between atoms: _149  and  _150
REMARK   67  A    between atoms: _153  and  _155
REMARK   68  A    between atoms: _155  and  _156
REMARK   69  A    between atoms: _158  and  _160
REMARK   70  A    between atoms: _160  and  _161
REMARK   71  A    between atoms: _160  and  _163
REMARK   72  A    between atoms: _163  and  _164
REMARK   73  A    between atoms: _164  and  _165
REMARK   74  A    between atoms: _167  and  _169
REMARK   75  A    between atoms: _169  and  _170
REMARK   76  A    between atoms: _169  and  _172
REMARK   77  A    between atoms: _172  and  _173
REMARK   78  A    between atoms: _176  and  _178
REMARK   79  A    between atoms: _178  and  _179
REMARK   80  A    between atoms: _178  and  _181
REMARK   81  A    between atoms: _181  and  _182
REMARK   82  A    between atoms: _182  and  _183
REMARK   83  A    between atoms: _183  and  _184
REMARK   84  A    between atoms: _184  and  _185
REMARK   85  A    between atoms: _189  and  _191
REMARK   86  A    between atoms: _191  and  _192
REMARK   87  A    between atoms: _195  and  _197
REMARK   88  A    between atoms: _197  and  _198
REMARK   89  A    between atoms: _197  and  _200
REMARK   90  A    between atoms: _200  and  _201
REMARK   91  A    between atoms: _204  and  _206
REMARK   92  A    between atoms: _206  and  _207
REMARK   93  A    between atoms: _206  and  _209
REMARK   94  A    between atoms: _209  and  _210
REMARK   95  A    between atoms: _213  and  _215
REMARK   96  A    between atoms: _215  and  _216
REMARK   97  A    between atoms: _215  and  _218
REMARK   98  A    between atoms: _218  and  _219
REMARK   99  A    between atoms: _222  and  _224
REMARK  100  A    between atoms: _224  and  _225
REMARK  101  A    between atoms: _224  and  _227
REMARK  102  A    between atoms: _227  and  _228
REMARK  103  A    between atoms: _233  and  _235
REMARK  104  A    between atoms: _235  and  _236
REMARK  105  A    between atoms: _235  and  _238
REMARK  106  A    between atoms: _238  and  _239
REMARK  107  A    between atoms: _244  and  _246
REMARK  108  A    between atoms: _246  and  _247
REMARK  109  A    between atoms: _246  and  _249
REMARK  110  A    between atoms: _249  and  _250
REMARK  111  A    between atoms: _253  and  _255
REMARK  112  A    between atoms: _255  and  _256
REMARK  113  A    between atoms: _258  and  _260
REMARK  114  A    between atoms: _260  and  _261
REMARK  115  A    between atoms: _260  and  _263
REMARK  116  A    between atoms: _263  and  _264
REMARK  117  A    between atoms: _267  and  _269
REMARK  118  A    between atoms: _269  and  _270
REMARK  119  A    between atoms: _269  and  _272
REMARK  120  A    between atoms: _272  and  _273
REMARK  121  A    between atoms: _276  and  _278
REMARK  122  A    between atoms: _278  and  _279
REMARK  123  A    between atoms: _282  and  _284
REMARK  124  A    between atoms: _284  and  _285
REMARK  125  A    between atoms: _284  and  _287
REMARK  126  A    between atoms: _287  and  _288
REMARK  127  A    between atoms: _288  and  _289
REMARK  128  A    between atoms: _289  and  _290
REMARK  129  A    between atoms: _290  and  _291
REMARK  130  A    between atoms: _295  and  _297
REMARK  131  A    between atoms: _297  and  _298
REMARK  132  A    between atoms: _300  and  _302
REMARK  133  A    between atoms: _302  and  _303
REMARK  134  A    between atoms: _302  and  _305
REMARK  135  A    between atoms: _305  and  _306
REMARK  136  A    between atoms: _309  and  _311
REMARK  137  A    between atoms: _311  and  _312
REMARK  138  A    between atoms: _311  and  _314
REMARK  139  A    between atoms: _314  and  _315
REMARK  140  A    between atoms: _321  and  _323
REMARK  141  A    between atoms: _323  and  _324
REMARK  142  A    between atoms: _326  and  _328
REMARK  143  A    between atoms: _328  and  _329
REMARK  144  A    between atoms: _328  and  _331
REMARK  145  A    between atoms: _334  and  _336
REMARK  146  A    between atoms: _336  and  _337
REMARK  147  A    between atoms: _339  and  _341
REMARK  148  A    between atoms: _341  and  _342
REMARK  149  A    between atoms: _341  and  _344
REMARK  150  A    between atoms: _344  and  _345
REMARK  151  A    between atoms: _351  and  _353
REMARK  152  A    between atoms: _353  and  _354
REMARK  153  A    between atoms: _353  and  _356
REMARK  154  A    between atoms: _356  and  _357
REMARK  155  A    between atoms: _362  and  _363
REMARK  156  A    between atoms: _365  and  _367
REMARK  157  A    between atoms: _367  and  _368
REMARK  158  A    between atoms: _367  and  _370
REMARK  159  A    between atoms: _370  and  _371
REMARK  160  A    between atoms: _376  and  _377
REMARK  161  A    between atoms: _379  and  _381
REMARK  162  A    between atoms: _381  and  _382
REMARK  163  A    between atoms: _381  and  _384
REMARK  164  A    between atoms: _387  and  _389
REMARK  165  A    between atoms: _389  and  _390
REMARK  166  A    between atoms: _389  and  _392
REMARK  167  A    between atoms: _392  and  _393
REMARK  168  A    between atoms: _396  and  _398
REMARK  169  A    between atoms: _398  and  _399
REMARK  170  A    between atoms: _398  and  _401
REMARK  171  A    between atoms: _404  and  _406
REMARK  172  A    between atoms: _406  and  _407
REMARK  173  A    between atoms: _406  and  _409
REMARK  174  A    between atoms: _409  and  _410
REMARK  175  A    between atoms: _413  and  _415
REMARK  176  A    between atoms: _415  and  _416
REMARK  177  A    between atoms: _415  and  _418
REMARK  178  A    between atoms: _418  and  _419
REMARK  179  A    between atoms: _422  and  _424
REMARK  180  A    between atoms: _424  and  _425
REMARK  181  A    between atoms: _424  and  _427
REMARK  182  A    between atoms: _427  and  _428
REMARK  183  A    between atoms: _433  and  _435
REMARK  184  A    between atoms: _435  and  _436
REMARK  185  A    between atoms: _435  and  _438
REMARK  186  A    between atoms: _438  and  _439
REMARK  187  A    between atoms: _444  and  _445
REMARK  188  A    between atoms: _447  and  _449
REMARK  189  A    between atoms: _449  and  _450
REMARK  190  A    between atoms: _453  and  _455
REMARK  191  A    between atoms: _455  and  _456
REMARK  192  A    between atoms: _455  and  _458
REMARK  193  A    between atoms: _458  and  _459
REMARK  194  A    between atoms: _469  and  _471
REMARK  195  A    between atoms: _471  and  _472
REMARK  196  A    between atoms: _471  and  _474
REMARK  197  A    between atoms: _474  and  _475
REMARK  198  A    between atoms: _475  and  _476
REMARK  199  A    between atoms: _479  and  _481
REMARK  200  A    between atoms: _481  and  _482
REMARK  201  A    between atoms: _481  and  _484
REMARK  202  A    between atoms: _484  and  _485
REMARK  203  A    between atoms: _487  and  _489
REMARK  204  A    between atoms: _489  and  _490
REMARK  205  A    between atoms: _489  and  _492
REMARK  206  A    between atoms: _492  and  _493
REMARK  207  A    between atoms: _499  and  _501
REMARK  208  A    between atoms: _501  and  _502
REMARK  209  A    between atoms: _501  and  _504
REMARK  210  A    between atoms: _504  and  _505
REMARK  211  A    between atoms: _508  and  _510
REMARK  212  A    between atoms: _510  and  _511
REMARK  213  A    between atoms: _510  and  _513
REMARK  214  A    between atoms: _516  and  _518
REMARK  215  A    between atoms: _518  and  _519
REMARK  216  A    between atoms: _518  and  _521
REMARK  217  A    between atoms: _521  and  _522
REMARK  218  A    between atoms: _525  and  _527
REMARK  219  A    between atoms: _527  and  _528
REMARK  220  A    between atoms: _527  and  _530
REMARK  221  A    between atoms: _530  and  _531
REMARK  222  A    between atoms: _531  and  _532
REMARK  223  A    between atoms: _532  and  _533
REMARK  224  A    between atoms: _533  and  _534
REMARK  225  A    between atoms: _538  and  _540
REMARK  226  A    between atoms: _540  and  _541
REMARK  227  A    between atoms: _540  and  _543
REMARK  228  A    between atoms: _546  and  _548
REMARK  229  A    between atoms: _548  and  _549
REMARK  230  A    between atoms: _548  and  _551
REMARK  231  A    between atoms: _551  and  _552
REMARK                            x       y       z     vdW  Elec       q    Type
REMARK                         _______ _______ _______ _____ _____    ______ ____
ROOT
ATOM      1  CA  ILE A   1      16.009  14.248  20.635  0.00  0.00    +0.133 C 
ENDROOT
BRANCH   1   2
ATOM      2  N   ILE A   1      17.374  13.750  20.855  0.00  0.00    -0.239 NA
ATOM      3  H   ILE A   1      17.773  13.773  21.815  0.00  0.00    +0.142 HD
ENDBRANCH   1   2
BRANCH   1   4
ATOM      4  CB  ILE A   1      15.185  14.347  21.939  0.00  0.00    +0.023 C 
ATOM      5  CG2 ILE A   1      13.800  14.907  21.658  0.00  0.00    +0.002 C 
BRANCH   4   6
ATOM      6  CG1 ILE A   1      15.125  13.006  22.683  0.00  0.00    +0.002 C 
ATOM      7  CD1 ILE A   1      15.346  11.787  21.827  0.00  0.00    +0.000 C 
ENDBRANCH   4   6
ENDBRANCH   1   4
BRANCH   1   8
ATOM      8  C   ILE A   1      16.018  15.598  19.941  0.00  0.00    +0.224 C 
ATOM      9  O   ILE A   1      15.194  15.841  19.059  0.00  0.00    -0.287 OA
ENDBRANCH   1   8
TORSDOF 4
REMARK  Name = ../refined-set-2016/4cwt/4cwt_pocket.pdb
REMARK  231 active torsions:
REMARK  status: ('A' for Active; 'I' for Inactive)
REMARK    1  A    between atoms: _1  and  _3
REMARK    2  A    between atoms: _3  and  _4
REMARK    3  A    between atoms: _3  and  _6
REMARK    4  A    between atoms: _6  and  _7
REMARK    5  A    between atoms: _13  and  _15
REMARK    6  A    between atoms: _15  and  _16
REMARK    7  A    between atoms: _19  and  _21
REMARK    8  A    between atoms: _21  and  _22
REMARK    9  A    between atoms: _21  and  _24
REMARK   10  A    between atoms: _24  and  _25
REMARK   11  A    between atoms: _31  and  _33
REMARK   12  A    between atoms: _33  and  _34
REMARK   13  A    between atoms: _33  and  _36
REMARK   14  A    between atoms: _36  and  _37
REMARK   15  A    between atoms: _37  and  _38
REMARK   16  A    between atoms: _43  and  _45
REMARK   17  A    between atoms: _45  and  _46
REMARK   18  A    between atoms: _45  and  _48
REMARK   19  A    between atoms: _48  and  _49
REMARK   20  A    between atoms: _52  and  _54
REMARK   21  A    between atoms: _54  and  _55
REMARK   22  A    between atoms: _54  and  _57
REMARK   23  A    between atoms: _57  and  _58
REMARK   24  A    between atoms: _61  and  _63
REMARK   25  A    between atoms: _63  and  _64
REMARK   26  A    between atoms: _63  and  _66
REMARK   27  A    between atoms: _66  and  _67
REMARK   28  A    between atoms: _67  and  _68
REMARK   29  A    between atoms: _70  and  _72
REMARK   30  A    between atoms: _72  and  _73
REMARK   31  A    between atoms: _72  and  _75
REMARK   32  A    between atoms: _75  and  _76
REMARK   33  A    between atoms: _76  and  _77
REMARK   34  A    between atoms: _80  and  _82
REMARK   35  A    between atoms: _82  and  _83
REMARK   36  A    between atoms: _82  and  _85
REMARK   37  A    between atoms: _85  and  _86
REMARK   38  A    between atoms: _89  and  _91
REMARK   39  A    between atoms: _91  and  _92
REMARK   40  A    between atoms: _91  and  _94
REMARK   41  A    between atoms: _94  and  _95
REMARK   42  A    between atoms: _97  and  _99
REMARK   43  A    between atoms: _99  and  _100
REMARK   44  A    between atoms: _99  and  _102
REMARK   45  A    between atoms: _102  and  _103
REMARK   46  A    between atoms: _108  and  _110
REMARK   47  A    between atoms: _110  and  _111
REMARK   48  A    between atoms: _110  and  _113
REMARK   49  A    between atoms: _113  and  _114
REMARK   50  A    between atoms: _116  and  _118
REMARK   51  A    between atoms: _118  and  _119
REMARK   52  A    between atoms: _118  and  _121
REMARK   53  A    between atoms: _121  and  _122
REMARK   54  A    between atoms: _125  and  _127
REMARK   55  A    between atoms: _127  and  _128
REMARK   56  A    between atoms: _131  and  _133
REMARK   57  A    between atoms: _133  and  _134
REMARK   58  A    between atoms: _133  and  _136
REMARK   59  A    between atoms: _136  and  _137
REMARK   60  A    between atoms: _137  and  _138
REMARK   61  A    between atoms: _138  and  _139
REMARK   62  A    between atoms: _139  and  _140
REMARK   63  A    between atoms: _144  and  _146
REMARK   64  A    between atoms: _146  and  _147
REMARK   65  A    between atoms: _146  and  _149
REMARK   66  A    between atoms: _149  and  _150
REMARK   67  A    between atoms: _153  and  _155
REMARK   68  A    between atoms: _155  and  _156
REMARK   69  A    between atoms: _158  and  _160
REMARK   70  A    between atoms: _160  and  _161
REMARK   71  A    between atoms: _160  and  _163
REMARK   72  A    between atoms: _163  and  _164
REMARK   73  A    between atoms: _164  and  _165
REMARK   74  A    between atoms: _167  and  _169
REMARK   75  A    between atoms: _169  and  _170
REMARK   76  A    between atoms: _169  and  _172
REMARK   77  A    between atoms: _172  and  _173
REMARK   78  A    between atoms: _176  and  _178
REMARK   79  A    between atoms: _178  and  _179
REMARK   80  A    between atoms: _178  and  _181
REMARK   81  A    between atoms: _181  and  _182
REMARK   82  A    between atoms: _182  and  _183
REMARK   83  A    between atoms: _183  and  _184
REMARK   84  A    between atoms: _184  and  _185
REMARK   85  A    between atoms: _189  and  _191
REMARK   86  A    between atoms: _191  and  _192
REMARK   87  A    between atoms: _195  and  _197
REMARK   88  A    between atoms: _197  and  _198
REMARK   89  A    between atoms: _197  and  _200
REMARK   90  A    between atoms: _200  and  _201
REMARK   91  A    between atoms: _204  and  _206
REMARK   92  A    between atoms: _206  and  _207
REMARK   93  A    between atoms: _206  and  _209
REMARK   94  A    between atoms: _209  and  _210
REMARK   95  A    between atoms: _213  and  _215
REMARK   96  A    between atoms: _215  and  _216
REMARK   97  A    between atoms: _215  and  _218
REMARK   98  A    between atoms: _218  and  _219
REMARK   99  A    between atoms: _222  and  _224
REMARK  100  A    between atoms: _224  and  _225
REMARK  101  A    between atoms: _224  and  _227
REMARK  102  A    between atoms: _227  and  _228
REMARK  103  A    between atoms: _233  and  _235
REMARK  104  A    between atoms: _235  and  _236
REMARK  105  A    between atoms: _235  and  _238
REMARK  106  A    between atoms: _238  and  _239
REMARK  107  A    between atoms: _244  and  _246
REMARK  108  A    between atoms: _246  and  _247
REMARK  109  A    between atoms: _246  and  _249
REMARK  110  A    between atoms: _249  and  _250
REMARK  111  A    between atoms: _253  and  _255
REMARK  112  A    between atoms: _255  and  _256
REMARK  113  A    between atoms: _258  and  _260
REMARK  114  A    between atoms: _260  and  _261
REMARK  115  A    between atoms: _260  and  _263
REMARK  116  A    between atoms: _263  and  _264
REMARK  117  A    between atoms: _267  and  _269
REMARK  118  A    between atoms: _269  and  _270
REMARK  119  A    between atoms: _269  and  _272
REMARK  120  A    between atoms: _272  and  _273
REMARK  121  A    between atoms: _276  and  _278
REMARK  122  A    between atoms: _278  and  _279
REMARK  123  A    between atoms: _282  and  _284
REMARK  124  A    between atoms: _284  and  _285
REMARK  125  A    between atoms: _284  and  _287
REMARK  126  A    between atoms: _287  and  _288
REMARK  127  A    between atoms: _288  and  _289
REMARK  128  A    between atoms: _289  and  _290
REMARK  129  A    between atoms: _290  and  _291
REMARK  130  A    between atoms: _295  and  _297
REMARK  131  A    between atoms: _297  and  _298
REMARK  132  A    between atoms: _300  and  _302
REMARK  133  A    between atoms: _302  and  _303
REMARK  134  A    between atoms: _302  and  _305
REMARK  135  A    between atoms: _305  and  _306
REMARK  136  A    between atoms: _309  and  _311
REMARK  137  A    between atoms: _311  and  _312
REMARK  138  A    between atoms: _311  and  _314
REMARK  139  A    between atoms: _314  and  _315
REMARK  140  A    between atoms: _321  and  _323
REMARK  141  A    between atoms: _323  and  _324
REMARK  142  A    between atoms: _326  and  _328
REMARK  143  A    between atoms: _328  and  _329
REMARK  144  A    between atoms: _328  and  _331
REMARK  145  A    between atoms: _334  and  _336
REMARK  146  A    between atoms: _336  and  _337
REMARK  147  A    between atoms: _339  and  _341
REMARK  148  A    between atoms: _341  and  _342
REMARK  149  A    between atoms: _341  and  _344
REMARK  150  A    between atoms: _344  and  _345
REMARK  151  A    between atoms: _351  and  _353
REMARK  152  A    between atoms: _353  and  _354
REMARK  153  A    between atoms: _353  and  _356
REMARK  154  A    between atoms: _356  and  _357
REMARK  155  A    between atoms: _362  and  _363
REMARK  156  A    between atoms: _365  and  _367
REMARK  157  A    between atoms: _367  and  _368
REMARK  158  A    between atoms: _367  and  _370
REMARK  159  A    between atoms: _370  and  _371
REMARK  160  A    between atoms: _376  and  _377
REMARK  161  A    between atoms: _379  and  _381
REMARK  162  A    between atoms: _381  and  _382
REMARK  163  A    between atoms: _381  and  _384
REMARK  164  A    between atoms: _387  and  _389
REMARK  165  A    between atoms: _389  and  _390
REMARK  166  A    between atoms: _389  and  _392
REMARK  167  A    between atoms: _392  and  _393
REMARK  168  A    between atoms: _396  and  _398
REMARK  169  A    between atoms: _398  and  _399
REMARK  170  A    between atoms: _398  and  _401
REMARK  171  A    between atoms: _404  and  _406
REMARK  172  A    between atoms: _406  and  _407
REMARK  173  A    between atoms: _406  and  _409
REMARK  174  A    between atoms: _409  and  _410
REMARK  175  A    between atoms: _413  and  _415
REMARK  176  A    between atoms: _415  and  _416
REMARK  177  A    between atoms: _415  and  _418
REMARK  178  A    between atoms: _418  and  _419
REMARK  179  A    between atoms: _422  and  _424
REMARK  180  A    between atoms: _424  and  _425
REMARK  181  A    between atoms: _424  and  _427
REMARK  182  A    between atoms: _427  and  _428
REMARK  183  A    between atoms: _433  and  _435
REMARK  184  A    between atoms: _435  and  _436
REMARK  185  A    between atoms: _435  and  _438
REMARK  186  A    between atoms: _438  and  _439
REMARK  187  A    between atoms: _444  and  _445
REMARK  188  A    between atoms: _447  and  _449
REMARK  189  A    between atoms: _449  and  _450
REMARK  190  A    between atoms: _453  and  _455
REMARK  191  A    between atoms: _455  and  _456
REMARK  192  A    between atoms: _455  and  _458
REMARK  193  A    between atoms: _458  and  _459
REMARK  194  A    between atoms: _469  and  _471
REMARK  195  A    between atoms: _471  and  _472
REMARK  196  A    between atoms: _471  and  _474
REMARK  197  A    between atoms: _474  and  _475
REMARK  198  A    between atoms: _475  and  _476
REMARK  199  A    between atoms: _479  and  _481
REMARK  200  A    between atoms: _481  and  _482
REMARK  201  A    between atoms: _481  and  _484
REMARK  202  A    between atoms: _484  and  _485
REMARK  203  A    between atoms: _487  and  _489
REMARK  204  A    between atoms: _489  and  _490
REMARK  205  A    between atoms: _489  and  _492
REMARK  206  A    between atoms: _492  and  _493
REMARK  207  A    between atoms: _499  and  _501
REMARK  208  A    between atoms: _501  and  _502
REMARK  209  A    between atoms: _501  and  _504
REMARK  210  A    between atoms: _504  and  _505
REMARK  211  A    between atoms: _508  and  _510
REMARK  212  A    between atoms: _510  and  _511
REMARK  213  A    between atoms: _510  and  _513
REMARK  214  A    between atoms: _516  and  _518
REMARK  215  A    between atoms: _518  and  _519
REMARK  216  A    between atoms: _518  and  _521
REMARK  217  A    between atoms: _521  and  _522
REMARK  218  A    between atoms: _525  and  _527
REMARK  219  A    between atoms: _527  and  _528
REMARK  220  A    between atoms: _527  and  _530
REMARK  221  A    between atoms: _530  and  _531
REMARK  222  A    between atoms: _531  and  _532
REMARK  223  A    between atoms: _532  and  _533
REMARK  224  A    between atoms: _533  and  _534
REMARK  225  A    between atoms: _538  and  _540
REMARK  226  A    between atoms: _540  and  _541
REMARK  227  A    between atoms: _540  and  _543
REMARK  228  A    between atoms: _546  and  _548
REMARK  229  A    between atoms: _548  and  _549
REMARK  230  A    between atoms: _548  and  _551
REMARK  231  A    between atoms: _551  and  _552
REMARK                            x       y       z     vdW  Elec       q    Type
REMARK                         _______ _______ _______ _____ _____    ______ ____
ROOT
ATOM      1  C   LEU A   1      14.454  15.553  15.405  0.00  0.00    +0.238 C 
ATOM      2  N   MET A   2      14.277  16.474  16.352  0.00  0.00    -0.298 N 
ATOM      3  H   MET A   2      14.749  16.362  17.272  0.00  0.00    +0.150 HD
ATOM      4  O   LEU A   1      13.916  15.628  14.280  0.00  0.00    -0.274 OA
ENDROOT
BRANCH   1   5
ATOM      5  CA  LEU A   1      15.351  14.371  15.775  0.00  0.00    +0.145 C 
BRANCH   5   6
ATOM      6  N   LEU A   1      16.622  14.805  16.392  0.00  0.00    -0.238 NA
ATOM      7  H   LEU A   1      16.870  14.459  17.341  0.00  0.00    +0.142 HD
ENDBRANCH   5   6
BRANCH   5   8
ATOM      8  CB  LEU A   1      14.604  13.413  16.708  0.00  0.00    +0.026 C 
BRANCH   8   9
ATOM      9  CG  LEU A   1      13.194  13.050  16.224  0.00  0.00    +0.002 C 
ATOM     10  CD2 LEU A   1      12.446  12.308  17.319  0.00  0.00    +0.000 C 
ATOM     11  CD1 LEU A   1      13.283  12.214  14.952  0.00  0.00    +0.000 C 
ENDBRANCH   8   9
ENDBRANCH   5   8
ENDBRANCH   1   5
BRANCH   2  12
ATOM     12  CA  MET A   2      13.429  17.638  16.113  0.00  0.00    +0.138 C 
BRANCH  12  13
ATOM     13  C   MET A   2      13.969  18.491  14.966  0.00  0.00    +0.227 C 
ATOM     14  O   MET A   2      13.189  18.960  14.125  0.00  0.00    -0.286 OA
ENDBRANCH  12  13
BRANCH  12  15
ATOM     15  CB  MET A   2      13.234  18.455  17.409  0.00  0.00    +0.039 C 
BRANCH  15  16
ATOM     16  CG  MET A   2      12.531  17.649  18.495  0.00  0.00    +0.060 C 
BRANCH  16  17
ATOM     17  SD  MET A   2      12.474  18.437  20.114  0.00  0.00    -0.139 S 
ATOM     18  CE  MET A   2      11.025  19.463  19.904  0.00  0.00    +0.069 C 
ENDBRANCH  16  17
ENDBRANCH  15  16
ENDBRANCH  12  15
ENDBRANCH   2  12
TORSDOF 9
REMARK  Name = ../refined-set-2016/4cwt/4cwt_pocket.pdb
REMARK  231 active torsions:
REMARK  status: ('A' for Active; 'I' for Inactive)
REMARK    1  A    between atoms: _1  and  _3
REMARK    2  A    between atoms: _3  and  _4
REMARK    3  A    between atoms: _3  and  _6
REMARK    4  A    between atoms: _6  and  _7
REMARK    5  A    between atoms: _13  and  _15
REMARK    6  A    between atoms: _15  and  _16
REMARK    7  A    between atoms: _19  and  _21
REMARK    8  A    between atoms: _21  and  _22
REMARK    9  A    between atoms: _21  and  _24
REMARK   10  A    between atoms: _24  and  _25
REMARK   11  A    between atoms: _31  and  _33
REMARK   12  A    between atoms: _33  and  _34
REMARK   13  A    between atoms: _33  and  _36
REMARK   14  A    between atoms: _36  and  _37
REMARK   15  A    between atoms: _37  and  _38
REMARK   16  A    between atoms: _43  and  _45
REMARK   17  A    between atoms: _45  and  _46
REMARK   18  A    between atoms: _45  and  _48
REMARK   19  A    between atoms: _48  and  _49
REMARK   20  A    between atoms: _52  and  _54
REMARK   21  A    between atoms: _54  and  _55
REMARK   22  A    between atoms: _54  and  _57
REMARK   23  A    between atoms: _57  and  _58
REMARK   24  A    between atoms: _61  and  _63
REMARK   25  A    between atoms: _63  and  _64
REMARK   26  A    between atoms: _63  and  _66
REMARK   27  A    between atoms: _66  and  _67
REMARK   28  A    between atoms: _67  and  _68
REMARK   29  A    between atoms: _70  and  _72
REMARK   30  A    between atoms: _72  and  _73
REMARK   31  A    between atoms: _72  and  _75
REMARK   32  A    between atoms: _75  and  _76
REMARK   33  A    between atoms: _76  and  _77
REMARK   34  A    between atoms: _80  and  _82
REMARK   35  A    between atoms: _82  and  _83
REMARK   36  A    between atoms: _82  and  _85
REMARK   37  A    between atoms: _85  and  _86
REMARK   38  A    between atoms: _89  and  _91
REMARK   39  A    between atoms: _91  and  _92
REMARK   40  A    between atoms: _91  and  _94
REMARK   41  A    between atoms: _94  and  _95
REMARK   42  A    between atoms: _97  and  _99
REMARK   43  A    between atoms: _99  and  _100
REMARK   44  A    between atoms: _99  and  _102
REMARK   45  A    between atoms: _102  and  _103
REMARK   46  A    between atoms: _108  and  _110
REMARK   47  A    between atoms: _110  and  _111
REMARK   48  A    between atoms: _110  and  _113
REMARK   49  A    between atoms: _113  and  _114
REMARK   50  A    between atoms: _116  and  _118
REMARK   51  A    between atoms: _118  and  _119
REMARK   52  A    between atoms: _118  and  _121
REMARK   53  A    between atoms: _121  and  _122
REMARK   54  A    between atoms: _125  and  _127
REMARK   55  A    between atoms: _127  and  _128
REMARK   56  A    between atoms: _131  and  _133
REMARK   57  A    between atoms: _133  and  _134
REMARK   58  A    between atoms: _133  and  _136
REMARK   59  A    between atoms: _136  and  _137
REMARK   60  A    between atoms: _137  and  _138
REMARK   61  A    between atoms: _138  and  _139
REMARK   62  A    between atoms: _139  and  _140
REMARK   63  A    between atoms: _144  and  _146
REMARK   64  A    between atoms: _146  and  _147
REMARK   65  A    between atoms: _146  and  _149
REMARK   66  A    between atoms: _149  and  _150
REMARK   67  A    between atoms: _153  and  _155
REMARK   68  A    between atoms: _155  and  _156
REMARK   69  A    between atoms: _158  and  _160
REMARK   70  A    between atoms: _160  and  _161
REMARK   71  A    between atoms: _160  and  _163
REMARK   72  A    between atoms: _163  and  _164
REMARK   73  A    between atoms: _164  and  _165
REMARK   74  A    between atoms: _167  and  _169
REMARK   75  A    between atoms: _169  and  _170
REMARK   76  A    between atoms: _169  and  _172
REMARK   77  A    between atoms: _172  and  _173
REMARK   78  A    between atoms: _176  and  _178
REMARK   79  A    between atoms: _178  and  _179
REMARK   80  A    between atoms: _178  and  _181
REMARK   81  A    between atoms: _181  and  _182
REMARK   82  A    between atoms: _182  and  _183
REMARK   83  A    between atoms: _183  and  _184
REMARK   84  A    between atoms: _184  and  _185
REMARK   85  A    between atoms: _189  and  _191
REMARK   86  A    between atoms: _191  and  _192
REMARK   87  A    between atoms: _195  and  _197
REMARK   88  A    between atoms: _197  and  _198
REMARK   89  A    between atoms: _197  and  _200
REMARK   90  A    between atoms: _200  and  _201
REMARK   91  A    between atoms: _204  and  _206
REMARK   92  A    between atoms: _206  and  _207
REMARK   93  A    between atoms: _206  and  _209
REMARK   94  A    between atoms: _209  and  _210
REMARK   95  A    between atoms: _213  and  _215
REMARK   96  A    between atoms: _215  and  _216
REMARK   97  A    between atoms: _215  and  _218
REMARK   98  A    between atoms: _218  and  _219
REMARK   99  A    between atoms: _222  and  _224
REMARK  100  A    between atoms: _224  and  _225
REMARK  101  A    between atoms: _224  and  _227
REMARK  102  A    between atoms: _227  and  _228
REMARK  103  A    between atoms: _233  and  _235
REMARK  104  A    between atoms: _235  and  _236
REMARK  105  A    between atoms: _235  and  _238
REMARK  106  A    between atoms: _238  and  _239
REMARK  107  A    between atoms: _244  and  _246
REMARK  108  A    between atoms: _246  and  _247
REMARK  109  A    between atoms: _246  and  _249
REMARK  110  A    between atoms: _249  and  _250
REMARK  111  A    between atoms: _253  and  _255
REMARK  112  A    between atoms: _255  and  _256
REMARK  113  A    between atoms: _258  and  _260
REMARK  114  A    between atoms: _260  and  _261
REMARK  115  A    between atoms: _260  and  _263
REMARK  116  A    between atoms: _263  and  _264
REMARK  117  A    between atoms: _267  and  _269
REMARK  118  A    between atoms: _269  and  _270
REMARK  119  A    between atoms: _269  and  _272
REMARK  120  A    between atoms: _272  and  _273
REMARK  121  A    between atoms: _276  and  _278
REMARK  122  A    between atoms: _278  and  _279
REMARK  123  A    between atoms: _282  and  _284
REMARK  124  A    between atoms: _284  and  _285
REMARK  125  A    between atoms: _284  and  _287
REMARK  126  A    between atoms: _287  and  _288
REMARK  127  A    between atoms: _288  and  _289
REMARK  128  A    between atoms: _289  and  _290
REMARK  129  A    between atoms: _290  and  _291
REMARK  130  A    between atoms: _295  and  _297
REMARK  131  A    between atoms: _297  and  _298
REMARK  132  A    between atoms: _300  and  _302
REMARK  133  A    between atoms: _302  and  _303
REMARK  134  A    between atoms: _302  and  _305
REMARK  135  A    between atoms: _305  and  _306
REMARK  136  A    between atoms: _309  and  _311
REMARK  137  A    between atoms: _311  and  _312
REMARK  138  A    between atoms: _311  and  _314
REMARK  139  A    between atoms: _314  and  _315
REMARK  140  A    between atoms: _321  and  _323
REMARK  141  A    between atoms: _323  and  _324
REMARK  142  A    between atoms: _326  and  _328
REMARK  143  A    between atoms: _328  and  _329
REMARK  144  A    between atoms: _328  and  _331
REMARK  145  A    between atoms: _334  and  _336
REMARK  146  A    between atoms: _336  and  _337
REMARK  147  A    between atoms: _339  and  _341
REMARK  148  A    between atoms: _341  and  _342
REMARK  149  A    between atoms: _341  and  _344
REMARK  150  A    between atoms: _344  and  _345
REMARK  151  A    between atoms: _351  and  _353
REMARK  152  A    between atoms: _353  and  _354
REMARK  153  A    between atoms: _353  and  _356
REMARK  154  A    between atoms: _356  and  _357
REMARK  155  A    between atoms: _362  and  _363
REMARK  156  A    between atoms: _365  and  _367
REMARK  157  A    between atoms: _367  and  _368
REMARK  158  A    between atoms: _367  and  _370
REMARK  159  A    between atoms: _370  and  _371
REMARK  160  A    between atoms: _376  and  _377
REMARK  161  A    between atoms: _379  and  _381
REMARK  162  A    between atoms: _381  and  _382
REMARK  163  A    between atoms: _381  and  _384
REMARK  164  A    between atoms: _387  and  _389
REMARK  165  A    between atoms: _389  and  _390
REMARK  166  A    between atoms: _389  and  _392
REMARK  167  A    between atoms: _392  and  _393
REMARK  168  A    between atoms: _396  and  _398
REMARK  169  A    between atoms: _398  and  _399
REMARK  170  A    between atoms: _398  and  _401
REMARK  171  A    between atoms: _404  and  _406
REMARK  172  A    between atoms: _406  and  _407
REMARK  173  A    between atoms: _406  and  _409
REMARK  174  A    between atoms: _409  and  _410
REMARK  175  A    between atoms: _413  and  _415
REMARK  176  A    between atoms: _415  and  _416
REMARK  177  A    between atoms: _415  and  _418
REMARK  178  A    between atoms: _418  and  _419
REMARK  179  A    between atoms: _422  and  _424
REMARK  180  A    between atoms: _424  and  _425
REMARK  181  A    between atoms: _424  and  _427
REMARK  182  A    between atoms: _427  and  _428
REMARK  183  A    between atoms: _433  and  _435
REMARK  184  A    between atoms: _435  and  _436
REMARK  185  A    between atoms: _435  and  _438
REMARK  186  A    between atoms: _438  and  _439
REMARK  187  A    between atoms: _444  and  _445
REMARK  188  A    between atoms: _447  and  _449
REMARK  189  A    between atoms: _449  and  _450
REMARK  190  A    between atoms: _453  and  _455
REMARK  191  A    between atoms: _455  and  _456
REMARK  192  A    between atoms: _455  and  _458
REMARK  193  A    between atoms: _458  and  _459
REMARK  194  A    between atoms: _469  and  _471
REMARK  195  A    between atoms: _471  and  _472
REMARK  196  A    between atoms: _471  and  _474
REMARK  197  A    between atoms: _474  and  _475
REMARK  198  A    between atoms: _475  and  _476
REMARK  199  A    between atoms: _479  and  _481
REMARK  200  A    between atoms: _481  and  _482
REMARK  201  A    between atoms: _481  and  _484
REMARK  202  A    between atoms: _484  and  _485
REMARK  203  A    between atoms: _487  and  _489
REMARK  204  A    between atoms: _489  and  _490
REMARK  205  A    between atoms: _489  and  _492
REMARK  206  A    between atoms: _492  and  _493
REMARK  207  A    between atoms: _499  and  _501
REMARK  208  A    between atoms: _501  and  _502
REMARK  209  A    between atoms: _501  and  _504
REMARK  210  A    between atoms: _504  and  _505
REMARK  211  A    between atoms: _508  and  _510
REMARK  212  A    between atoms: _510  and  _511
REMARK  213  A    between atoms: _510  and  _513
REMARK  214  A    between atoms: _516  and  _518
REMARK  215  A    between atoms: _518  and  _519
REMARK  216  A    between atoms: _518  and  _521
REMARK  217  A    between atoms: _521  and  _522
REMARK  218  A    between atoms: _525  and  _527
REMARK  219  A    between atoms: _527  and  _528
REMARK  220  A    between atoms: _527  and  _530
REMARK  221  A    between atoms: _530  and  _531
REMARK  222  A    between atoms: _531  and  _532
REMARK  223  A    between atoms: _532  and  _533
REMARK  224  A    between atoms: _533  and  _534
REMARK  225  A    between atoms: _538  and  _540
REMARK  226  A    between atoms: _540  and  _541
REMARK  227  A    between atoms: _540  and  _543
REMARK  228  A    between atoms: _546  and  _548
REMARK  229  A    between atoms: _548  and  _549
REMARK  230  A    between atoms: _548  and  _551
REMARK  231  A    between atoms: _551  and  _552
REMARK                            x       y       z     vdW  Elec       q    Type
REMARK                         _______ _______ _______ _____ _____    ______ ____
ROOT
ATOM      1  C   GLU A   1      -0.458  10.580  16.020  0.00  0.00    +0.238 C 
ATOM      2  O   GLU A   1      -0.393   9.851  17.004  0.00  0.00    -0.274 OA
ATOM      3  N   LEU A   2      -0.975  11.801  16.068  0.00  0.00    -0.298 N 
ATOM      4  H   LEU A   2      -0.994  12.387  15.209  0.00  0.00    +0.150 HD
ENDROOT
BRANCH   1   5
ATOM      5  CA  GLU A   1       0.063  10.099  14.666  0.00  0.00    +0.145 C 
BRANCH   5   6
ATOM      6  N   GLU A   1      -0.842  10.480  13.584  0.00  0.00    -0.238 NA
ATOM      7  H   GLU A   1      -0.546  11.208  12.903  0.00  0.00    +0.142 HD
ENDBRANCH   5   6
BRANCH   5   8
ATOM      8  CB  GLU A   1       1.483  10.624  14.420  0.00  0.00    +0.038 C 
BRANCH   8   9
ATOM      9  CG  GLU A   1       2.208   9.981  13.231  0.00  0.00    +0.116 C 
BRANCH   9  10
ATOM     10  CD  GLU A   1       2.102   8.459  13.191  0.00  0.00    +0.365 C 
ATOM     11  OE2 GLU A   1       2.286   7.798  14.237  0.00  0.00    -0.246 OA
ATOM     12  OE1 GLU A   1       1.849   7.929  12.089  0.00  0.00    -0.246 OA
ENDBRANCH   9  10
ENDBRANCH   8   9
ENDBRANCH   5   8
ENDBRANCH   1   5
BRANCH   3  13
ATOM     13  CA  LEU A   2      -1.521  12.333  17.326  0.00  0.00    +0.137 C 
BRANCH  13  14
ATOM     14  C   LEU A   2      -2.817  11.623  17.741  0.00  0.00    +0.227 C 
ATOM     15  O   LEU A   2      -3.039  11.370  18.928  0.00  0.00    -0.286 OA
ENDBRANCH  13  14
BRANCH  13  16
ATOM     16  CB  LEU A   2      -1.725  13.856  17.225  0.00  0.00    +0.028 C 
BRANCH  16  17
ATOM     17  CG  LEU A   2      -0.406  14.612  16.988  0.00  0.00    +0.002 C 
ATOM     18  CD2 LEU A   2       0.661  14.249  18.018  0.00  0.00    +0.000 C 
ATOM     19  CD1 LEU A   2      -0.650  16.110  17.002  0.00  0.00    +0.000 C 
ENDBRANCH  16  17
ENDBRANCH  13  16
ENDBRANCH   3  13
TORSDOF 9
REMARK  Name = ../refined-set-2016/4cwt/4cwt_pocket.pdb
REMARK  231 active torsions:
REMARK  status: ('A' for Active; 'I' for Inactive)
REMARK    1  A    between atoms: _1  and  _3
REMARK    2  A    between atoms: _3  and  _4
REMARK    3  A    between atoms: _3  and  _6
REMARK    4  A    between atoms: _6  and  _7
REMARK    5  A    between atoms: _13  and  _15
REMARK    6  A    between atoms: _15  and  _16
REMARK    7  A    between atoms: _19  and  _21
REMARK    8  A    between atoms: _21  and  _22
REMARK    9  A    between atoms: _21  and  _24
REMARK   10  A    between atoms: _24  and  _25
REMARK   11  A    between atoms: _31  and  _33
REMARK   12  A    between atoms: _33  and  _34
REMARK   13  A    between atoms: _33  and  _36
REMARK   14  A    between atoms: _36  and  _37
REMARK   15  A    between atoms: _37  and  _38
REMARK   16  A    between atoms: _43  and  _45
REMARK   17  A    between atoms: _45  and  _46
REMARK   18  A    between atoms: _45  and  _48
REMARK   19  A    between atoms: _48  and  _49
REMARK   20  A    between atoms: _52  and  _54
REMARK   21  A    between atoms: _54  and  _55
REMARK   22  A    between atoms: _54  and  _57
REMARK   23  A    between atoms: _57  and  _58
REMARK   24  A    between atoms: _61  and  _63
REMARK   25  A    between atoms: _63  and  _64
REMARK   26  A    between atoms: _63  and  _66
REMARK   27  A    between atoms: _66  and  _67
REMARK   28  A    between atoms: _67  and  _68
REMARK   29  A    between atoms: _70  and  _72
REMARK   30  A    between atoms: _72  and  _73
REMARK   31  A    between atoms: _72  and  _75
REMARK   32  A    between atoms: _75  and  _76
REMARK   33  A    between atoms: _76  and  _77
REMARK   34  A    between atoms: _80  and  _82
REMARK   35  A    between atoms: _82  and  _83
REMARK   36  A    between atoms: _82  and  _85
REMARK   37  A    between atoms: _85  and  _86
REMARK   38  A    between atoms: _89  and  _91
REMARK   39  A    between atoms: _91  and  _92
REMARK   40  A    between atoms: _91  and  _94
REMARK   41  A    between atoms: _94  and  _95
REMARK   42  A    between atoms: _97  and  _99
REMARK   43  A    between atoms: _99  and  _100
REMARK   44  A    between atoms: _99  and  _102
REMARK   45  A    between atoms: _102  and  _103
REMARK   46  A    between atoms: _108  and  _110
REMARK   47  A    between atoms: _110  and  _111
REMARK   48  A    between atoms: _110  and  _113
REMARK   49  A    between atoms: _113  and  _114
REMARK   50  A    between atoms: _116  and  _118
REMARK   51  A    between atoms: _118  and  _119
REMARK   52  A    between atoms: _118  and  _121
REMARK   53  A    between atoms: _121  and  _122
REMARK   54  A    between atoms: _125  and  _127
REMARK   55  A    between atoms: _127  and  _128
REMARK   56  A    between atoms: _131  and  _133
REMARK   57  A    between atoms: _133  and  _134
REMARK   58  A    between atoms: _133  and  _136
REMARK   59  A    between atoms: _136  and  _137
REMARK   60  A    between atoms: _137  and  _138
REMARK   61  A    between atoms: _138  and  _139
REMARK   62  A    between atoms: _139  and  _140
REMARK   63  A    between atoms: _144  and  _146
REMARK   64  A    between atoms: _146  and  _147
REMARK   65  A    between atoms: _146  and  _149
REMARK   66  A    between atoms: _149  and  _150
REMARK   67  A    between atoms: _153  and  _155
REMARK   68  A    between atoms: _155  and  _156
REMARK   69  A    between atoms: _158  and  _160
REMARK   70  A    between atoms: _160  and  _161
REMARK   71  A    between atoms: _160  and  _163
REMARK   72  A    between atoms: _163  and  _164
REMARK   73  A    between atoms: _164  and  _165
REMARK   74  A    between atoms: _167  and  _169
REMARK   75  A    between atoms: _169  and  _170
REMARK   76  A    between atoms: _169  and  _172
REMARK   77  A    between atoms: _172  and  _173
REMARK   78  A    between atoms: _176  and  _178
REMARK   79  A    between atoms: _178  and  _179
REMARK   80  A    between atoms: _178  and  _181
REMARK   81  A    between atoms: _181  and  _182
REMARK   82  A    between atoms: _182  and  _183
REMARK   83  A    between atoms: _183  and  _184
REMARK   84  A    between atoms: _184  and  _185
REMARK   85  A    between atoms: _189  and  _191
REMARK   86  A    between atoms: _191  and  _192
REMARK   87  A    between atoms: _195  and  _197
REMARK   88  A    between atoms: _197  and  _198
REMARK   89  A    between atoms: _197  and  _200
REMARK   90  A    between atoms: _200  and  _201
REMARK   91  A    between atoms: _204  and  _206
REMARK   92  A    between atoms: _206  and  _207
REMARK   93  A    between atoms: _206  and  _209
REMARK   94  A    between atoms: _209  and  _210
REMARK   95  A    between atoms: _213  and  _215
REMARK   96  A    between atoms: _215  and  _216
REMARK   97  A    between atoms: _215  and  _218
REMARK   98  A    between atoms: _218  and  _219
REMARK   99  A    between atoms: _222  and  _224
REMARK  100  A    between atoms: _224  and  _225
REMARK  101  A    between atoms: _224  and  _227
REMARK  102  A    between atoms: _227  and  _228
REMARK  103  A    between atoms: _233  and  _235
REMARK  104  A    between atoms: _235  and  _236
REMARK  105  A    between atoms: _235  and  _238
REMARK  106  A    between atoms: _238  and  _239
REMARK  107  A    between atoms: _244  and  _246
REMARK  108  A    between atoms: _246  and  _247
REMARK  109  A    between atoms: _246  and  _249
REMARK  110  A    between atoms: _249  and  _250
REMARK  111  A    between atoms: _253  and  _255
REMARK  112  A    between atoms: _255  and  _256
REMARK  113  A    between atoms: _258  and  _260
REMARK  114  A    between atoms: _260  and  _261
REMARK  115  A    between atoms: _260  and  _263
REMARK  116  A    between atoms: _263  and  _264
REMARK  117  A    between atoms: _267  and  _269
REMARK  118  A    between atoms: _269  and  _270
REMARK  119  A    between atoms: _269  and  _272
REMARK  120  A    between atoms: _272  and  _273
REMARK  121  A    between atoms: _276  and  _278
REMARK  122  A    between atoms: _278  and  _279
REMARK  123  A    between atoms: _282  and  _284
REMARK  124  A    between atoms: _284  and  _285
REMARK  125  A    between atoms: _284  and  _287
REMARK  126  A    between atoms: _287  and  _288
REMARK  127  A    between atoms: _288  and  _289
REMARK  128  A    between atoms: _289  and  _290
REMARK  129  A    between atoms: _290  and  _291
REMARK  130  A    between atoms: _295  and  _297
REMARK  131  A    between atoms: _297  and  _298
REMARK  132  A    between atoms: _300  and  _302
REMARK  133  A    between atoms: _302  and  _303
REMARK  134  A    between atoms: _302  and  _305
REMARK  135  A    between atoms: _305  and  _306
REMARK  136  A    between atoms: _309  and  _311
REMARK  137  A    between atoms: _311  and  _312
REMARK  138  A    between atoms: _311  and  _314
REMARK  139  A    between atoms: _314  and  _315
REMARK  140  A    between atoms: _321  and  _323
REMARK  141  A    between atoms: _323  and  _324
REMARK  142  A    between atoms: _326  and  _328
REMARK  143  A    between atoms: _328  and  _329
REMARK  144  A    between atoms: _328  and  _331
REMARK  145  A    between atoms: _334  and  _336
REMARK  146  A    between atoms: _336  and  _337
REMARK  147  A    between atoms: _339  and  _341
REMARK  148  A    between atoms: _341  and  _342
REMARK  149  A    between atoms: _341  and  _344
REMARK  150  A    between atoms: _344  and  _345
REMARK  151  A    between atoms: _351  and  _353
REMARK  152  A    between atoms: _353  and  _354
REMARK  153  A    between atoms: _353  and  _356
REMARK  154  A    between atoms: _356  and  _357
REMARK  155  A    between atoms: _362  and  _363
REMARK  156  A    between atoms: _365  and  _367
REMARK  157  A    between atoms: _367  and  _368
REMARK  158  A    between atoms: _367  and  _370
REMARK  159  A    between atoms: _370  and  _371
REMARK  160  A    between atoms: _376  and  _377
REMARK  161  A    between atoms: _379  and  _381
REMARK  162  A    between atoms: _381  and  _382
REMARK  163  A    between atoms: _381  and  _384
REMARK  164  A    between atoms: _387  and  _389
REMARK  165  A    between atoms: _389  and  _390
REMARK  166  A    between atoms: _389  and  _392
REMARK  167  A    between atoms: _392  and  _393
REMARK  168  A    between atoms: _396  and  _398
REMARK  169  A    between atoms: _398  and  _399
REMARK  170  A    between atoms: _398  and  _401
REMARK  171  A    between atoms: _404  and  _406
REMARK  172  A    between atoms: _406  and  _407
REMARK  173  A    between atoms: _406  and  _409
REMARK  174  A    between atoms: _409  and  _410
REMARK  175  A    between atoms: _413  and  _415
REMARK  176  A    between atoms: _415  and  _416
REMARK  177  A    between atoms: _415  and  _418
REMARK  178  A    between atoms: _418  and  _419
REMARK  179  A    between atoms: _422  and  _424
REMARK  180  A    between atoms: _424  and  _425
REMARK  181  A    between atoms: _424  and  _427
REMARK  182  A    between atoms: _427  and  _428
REMARK  183  A    between atoms: _433  and  _435
REMARK  184  A    between atoms: _435  and  _436
REMARK  185  A    between atoms: _435  and  _438
REMARK  186  A    between atoms: _438  and  _439
REMARK  187  A    between atoms: _444  and  _445
REMARK  188  A    between atoms: _447  and  _449
REMARK  189  A    between atoms: _449  and  _450
REMARK  190  A    between atoms: _453  and  _455
REMARK  191  A    between atoms: _455  and  _456
REMARK  192  A    between atoms: _455  and  _458
REMARK  193  A    between atoms: _458  and  _459
REMARK  194  A    between atoms: _469  and  _471
REMARK  195  A    between atoms: _471  and  _472
REMARK  196  A    between atoms: _471  and  _474
REMARK  197  A    between atoms: _474  and  _475
REMARK  198  A    between atoms: _475  and  _476
REMARK  199  A    between atoms: _479  and  _481
REMARK  200  A    between atoms: _481  and  _482
REMARK  201  A    between atoms: _481  and  _484
REMARK  202  A    between atoms: _484  and  _485
REMARK  203  A    between atoms: _487  and  _489
REMARK  204  A    between atoms: _489  and  _490
REMARK  205  A    between atoms: _489  and  _492
REMARK  206  A    between atoms: _492  and  _493
REMARK  207  A    between atoms: _499  and  _501
REMARK  208  A    between atoms: _501  and  _502
REMARK  209  A    between atoms: _501  and  _504
REMARK  210  A    between atoms: _504  and  _505
REMARK  211  A    between atoms: _508  and  _510
REMARK  212  A    between atoms: _510  and  _511
REMARK  213  A    between atoms: _510  and  _513
REMARK  214  A    between atoms: _516  and  _518
REMARK  215  A    between atoms: _518  and  _519
REMARK  216  A    between atoms: _518  and  _521
REMARK  217  A    between atoms: _521  and  _522
REMARK  218  A    between atoms: _525  and  _527
REMARK  219  A    between atoms: _527  and  _528
REMARK  220  A    between atoms: _527  and  _530
REMARK  221  A    between atoms: _530  and  _531
REMARK  222  A    between atoms: _531  and  _532
REMARK  223  A    between atoms: _532  and  _533
REMARK  224  A    between atoms: _533  and  _534
REMARK  225  A    between atoms: _538  and  _540
REMARK  226  A    between atoms: _540  and  _541
REMARK  227  A    between atoms: _540  and  _543
REMARK  228  A    between atoms: _546  and  _548
REMARK  229  A    between atoms: _548  and  _549
REMARK  230  A    between atoms: _548  and  _551
REMARK  231  A    between atoms: _551  and  _552
REMARK                            x       y       z     vdW  Elec       q    Type
REMARK                         _______ _______ _______ _____ _____    ______ ____
ROOT
ATOM      1  CA  ASN A   2      -1.368   8.560  20.489  0.00  0.00    +0.158 C 
ENDROOT
BRANCH   1   4
ATOM      2  C   SER A   1      -2.528   7.285  18.756  0.00  0.00    +0.241 C 
ATOM      3  O   SER A   1      -2.832   6.400  19.566  0.00  0.00    -0.274 OA
ATOM      4  N   ASN A   2      -1.756   8.334  19.086  0.00  0.00    -0.297 N 
ATOM      5  H   ASN A   2      -1.431   8.990  18.347  0.00  0.00    +0.150 HD
BRANCH   2   6
ATOM      6  CA  SER A   1      -3.052   7.219  17.310  0.00  0.00    +0.174 C 
BRANCH   6   7
ATOM      7  N   SER A   1      -3.550   8.524  16.894  0.00  0.00    -0.236 NA
ATOM      8  H   SER A   1      -3.094   9.006  16.093  0.00  0.00    +0.142 HD
ENDBRANCH   6   7
BRANCH   6   9
ATOM      9  CB  SER A   1      -1.976   6.713  16.330  0.00  0.00    +0.163 C 
BRANCH   9  10
ATOM     10  OG  SER A   1      -1.297   5.577  16.839  0.00  0.00    -0.380 OA
ATOM     11  H   SER A   1      -0.616   5.281  16.185  0.00  0.00    +0.211 HD
ENDBRANCH   9  10
ENDBRANCH   6   9
ENDBRANCH   2   6
ENDBRANCH   1   4
BRANCH   1  12
ATOM     12  C   ASN A   2      -2.554   8.642  21.443  0.00  0.00    +0.241 C 
ATOM     13  O   ASN A   2      -2.504   8.063  22.533  0.00  0.00    -0.273 OA
ATOM     14  N   SER A   3      -3.602   9.365  21.042  0.00  0.00    -0.296 N 
ATOM     15  H   SER A   3      -3.562   9.853  20.124  0.00  0.00    +0.150 HD
BRANCH  14  16
ATOM     16  CA  SER A   3      -4.809   9.487  21.867  0.00  0.00    +0.166 C 
BRANCH  16  17
ATOM     17  C   SER A   3      -5.476   8.122  22.080  0.00  0.00    +0.229 C 
ATOM     18  O   SER A   3      -5.800   7.749  23.218  0.00  0.00    -0.286 OA
ENDBRANCH  16  17
BRANCH  16  19
ATOM     19  CB  SER A   3      -5.790  10.490  21.255  0.00  0.00    +0.165 C 
BRANCH  19  20
ATOM     20  OG  SER A   3      -5.235  11.800  21.335  0.00  0.00    -0.380 OA
ATOM     21  H   SER A   3      -5.073  12.031  22.284  0.00  0.00    +0.211 HD
ENDBRANCH  19  20
ENDBRANCH  16  19
ENDBRANCH  14  16
ENDBRANCH   1  12
BRANCH   1  22
ATOM     22  CB  ASN A   2      -0.494   9.812  20.668  0.00  0.00    +0.114 C 
BRANCH  22  23
ATOM     23  CG  ASN A   2       0.885   9.658  20.064  0.00  0.00    +0.222 C 
ATOM     24  ND2 ASN A   2       1.628  10.770  20.010  0.00  0.00    -0.329 N 
ATOM     25 HD21 ASN A   2       1.248  11.668  20.372  0.00  0.00    +0.145 HD
ATOM     26 HD22 ASN A   2       2.586  10.736  19.606  0.00  0.00    +0.145 HD
ATOM     27  OD1 ASN A   2       1.288   8.556  19.646  0.00  0.00    -0.275 OA
ENDBRANCH  22  23
ENDBRANCH   1  22
TORSDOF 12
REMARK  Name = ../refined-set-2016/4cwt/4cwt_pocket.pdb
REMARK  231 active torsions:
REMARK  status: ('A' for Active; 'I' for Inactive)
REMARK    1  A    between atoms: _1  and  _3
REMARK    2  A    between atoms: _3  and  _4
REMARK    3  A    between atoms: _3  and  _6
REMARK    4  A    between atoms: _6  and  _7
REMARK    5  A    between atoms: _13  and  _15
REMARK    6  A    between atoms: _15  and  _16
REMARK    7  A    between atoms: _19  and  _21
REMARK    8  A    between atoms: _21  and  _22
REMARK    9  A    between atoms: _21  and  _24
REMARK   10  A    between atoms: _24  and  _25
REMARK   11  A    between atoms: _31  and  _33
REMARK   12  A    between atoms: _33  and  _34
REMARK   13  A    between atoms: _33  and  _36
REMARK   14  A    between atoms: _36  and  _37
REMARK   15  A    between atoms: _37  and  _38
REMARK   16  A    between atoms: _43  and  _45
REMARK   17  A    between atoms: _45  and  _46
REMARK   18  A    between atoms: _45  and  _48
REMARK   19  A    between atoms: _48  and  _49
REMARK   20  A    between atoms: _52  and  _54
REMARK   21  A    between atoms: _54  and  _55
REMARK   22  A    between atoms: _54  and  _57
REMARK   23  A    between atoms: _57  and  _58
REMARK   24  A    between atoms: _61  and  _63
REMARK   25  A    between atoms: _63  and  _64
REMARK   26  A    between atoms: _63  and  _66
REMARK   27  A    between atoms: _66  and  _67
REMARK   28  A    between atoms: _67  and  _68
REMARK   29  A    between atoms: _70  and  _72
REMARK   30  A    between atoms: _72  and  _73
REMARK   31  A    between atoms: _72  and  _75
REMARK   32  A    between atoms: _75  and  _76
REMARK   33  A    between atoms: _76  and  _77
REMARK   34  A    between atoms: _80  and  _82
REMARK   35  A    between atoms: _82  and  _83
REMARK   36  A    between atoms: _82  and  _85
REMARK   37  A    between atoms: _85  and  _86
REMARK   38  A    between atoms: _89  and  _91
REMARK   39  A    between atoms: _91  and  _92
REMARK   40  A    between atoms: _91  and  _94
REMARK   41  A    between atoms: _94  and  _95
REMARK   42  A    between atoms: _97  and  _99
REMARK   43  A    between atoms: _99  and  _100
REMARK   44  A    between atoms: _99  and  _102
REMARK   45  A    between atoms: _102  and  _103
REMARK   46  A    between atoms: _108  and  _110
REMARK   47  A    between atoms: _110  and  _111
REMARK   48  A    between atoms: _110  and  _113
REMARK   49  A    between atoms: _113  and  _114
REMARK   50  A    between atoms: _116  and  _118
REMARK   51  A    between atoms: _118  and  _119
REMARK   52  A    between atoms: _118  and  _121
REMARK   53  A    between atoms: _121  and  _122
REMARK   54  A    between atoms: _125  and  _127
REMARK   55  A    between atoms: _127  and  _128
REMARK   56  A    between atoms: _131  and  _133
REMARK   57  A    between atoms: _133  and  _134
REMARK   58  A    between atoms: _133  and  _136
REMARK   59  A    between atoms: _136  and  _137
REMARK   60  A    between atoms: _137  and  _138
REMARK   61  A    between atoms: _138  and  _139
REMARK   62  A    between atoms: _139  and  _140
REMARK   63  A    between atoms: _144  and  _146
REMARK   64  A    between atoms: _146  and  _147
REMARK   65  A    between atoms: _146  and  _149
REMARK   66  A    between atoms: _149  and  _150
REMARK   67  A    between atoms: _153  and  _155
REMARK   68  A    between atoms: _155  and  _156
REMARK   69  A    between atoms: _158  and  _160
REMARK   70  A    between atoms: _160  and  _161
REMARK   71  A    between atoms: _160  and  _163
REMARK   72  A    between atoms: _163  and  _164
REMARK   73  A    between atoms: _164  and  _165
REMARK   74  A    between atoms: _167  and  _169
REMARK   75  A    between atoms: _169  and  _170
REMARK   76  A    between atoms: _169  and  _172
REMARK   77  A    between atoms: _172  and  _173
REMARK   78  A    between atoms: _176  and  _178
REMARK   79  A    between atoms: _178  and  _179
REMARK   80  A    between atoms: _178  and  _181
REMARK   81  A    between atoms: _181  and  _182
REMARK   82  A    between atoms: _182  and  _183
REMARK   83  A    between atoms: _183  and  _184
REMARK   84  A    between atoms: _184  and  _185
REMARK   85  A    between atoms: _189  and  _191
REMARK   86  A    between atoms: _191  and  _192
REMARK   87  A    between atoms: _195  and  _197
REMARK   88  A    between atoms: _197  and  _198
REMARK   89  A    between atoms: _197  and  _200
REMARK   90  A    between atoms: _200  and  _201
REMARK   91  A    between atoms: _204  and  _206
REMARK   92  A    between atoms: _206  and  _207
REMARK   93  A    between atoms: _206  and  _209
REMARK   94  A    between atoms: _209  and  _210
REMARK   95  A    between atoms: _213  and  _215
REMARK   96  A    between atoms: _215  and  _216
REMARK   97  A    between atoms: _215  and  _218
REMARK   98  A    between atoms: _218  and  _219
REMARK   99  A    between atoms: _222  and  _224
REMARK  100  A    between atoms: _224  and  _225
REMARK  101  A    between atoms: _224  and  _227
REMARK  102  A    between atoms: _227  and  _228
REMARK  103  A    between atoms: _233  and  _235
REMARK  104  A    between atoms: _235  and  _236
REMARK  105  A    between atoms: _235  and  _238
REMARK  106  A    between atoms: _238  and  _239
REMARK  107  A    between atoms: _244  and  _246
REMARK  108  A    between atoms: _246  and  _247
REMARK  109  A    between atoms: _246  and  _249
REMARK  110  A    between atoms: _249  and  _250
REMARK  111  A    between atoms: _253  and  _255
REMARK  112  A    between atoms: _255  and  _256
REMARK  113  A    between atoms: _258  and  _260
REMARK  114  A    between atoms: _260  and  _261
REMARK  115  A    between atoms: _260  and  _263
REMARK  116  A    between atoms: _263  and  _264
REMARK  117  A    between atoms: _267  and  _269
REMARK  118  A    between atoms: _269  and  _270
REMARK  119  A    between atoms: _269  and  _272
REMARK  120  A    between atoms: _272  and  _273
REMARK  121  A    between atoms: _276  and  _278
REMARK  122  A    between atoms: _278  and  _279
REMARK  123  A    between atoms: _282  and  _284
REMARK  124  A    between atoms: _284  and  _285
REMARK  125  A    between atoms: _284  and  _287
REMARK  126  A    between atoms: _287  and  _288
REMARK  127  A    between atoms: _288  and  _289
REMARK  128  A    between atoms: _289  and  _290
REMARK  129  A    between atoms: _290  and  _291
REMARK  130  A    between atoms: _295  and  _297
REMARK  131  A    between atoms: _297  and  _298
REMARK  132  A    between atoms: _300  and  _302
REMARK  133  A    between atoms: _302  and  _303
REMARK  134  A    between atoms: _302  and  _305
REMARK  135  A    between atoms: _305  and  _306
REMARK  136  A    between atoms: _309  and  _311
REMARK  137  A    between atoms: _311  and  _312
REMARK  138  A    between atoms: _311  and  _314
REMARK  139  A    between atoms: _314  and  _315
REMARK  140  A    between atoms: _321  and  _323
REMARK  141  A    between atoms: _323  and  _324
REMARK  142  A    between atoms: _326  and  _328
REMARK  143  A    between atoms: _328  and  _329
REMARK  144  A    between atoms: _328  and  _331
REMARK  145  A    between atoms: _334  and  _336
REMARK  146  A    between atoms: _336  and  _337
REMARK  147  A    between atoms: _339  and  _341
REMARK  148  A    between atoms: _341  and  _342
REMARK  149  A    between atoms: _341  and  _344
REMARK  150  A    between atoms: _344  and  _345
REMARK  151  A    between atoms: _351  and  _353
REMARK  152  A    between atoms: _353  and  _354
REMARK  153  A    between atoms: _353  and  _356
REMARK  154  A    between atoms: _356  and  _357
REMARK  155  A    between atoms: _362  and  _363
REMARK  156  A    between atoms: _365  and  _367
REMARK  157  A    between atoms: _367  and  _368
REMARK  158  A    between atoms: _367  and  _370
REMARK  159  A    between atoms: _370  and  _371
REMARK  160  A    between atoms: _376  and  _377
REMARK  161  A    between atoms: _379  and  _381
REMARK  162  A    between atoms: _381  and  _382
REMARK  163  A    between atoms: _381  and  _384
REMARK  164  A    between atoms: _387  and  _389
REMARK  165  A    between atoms: _389  and  _390
REMARK  166  A    between atoms: _389  and  _392
REMARK  167  A    between atoms: _392  and  _393
REMARK  168  A    between atoms: _396  and  _398
REMARK  169  A    between atoms: _398  and  _399
REMARK  170  A    between atoms: _398  and  _401
REMARK  171  A    between atoms: _404  and  _406
REMARK  172  A    between atoms: _406  and  _407
REMARK  173  A    between atoms: _406  and  _409
REMARK  174  A    between atoms: _409  and  _410
REMARK  175  A    between atoms: _413  and  _415
REMARK  176  A    between atoms: _415  and  _416
REMARK  177  A    between atoms: _415  and  _418
REMARK  178  A    between atoms: _418  and  _419
REMARK  179  A    between atoms: _422  and  _424
REMARK  180  A    between atoms: _424  and  _425
REMARK  181  A    between atoms: _424  and  _427
REMARK  182  A    between atoms: _427  and  _428
REMARK  183  A    between atoms: _433  and  _435
REMARK  184  A    between atoms: _435  and  _436
REMARK  185  A    between atoms: _435  and  _438
REMARK  186  A    between atoms: _438  and  _439
REMARK  187  A    between atoms: _444  and  _445
REMARK  188  A    between atoms: _447  and  _449
REMARK  189  A    between atoms: _449  and  _450
REMARK  190  A    between atoms: _453  and  _455
REMARK  191  A    between atoms: _455  and  _456
REMARK  192  A    between atoms: _455  and  _458
REMARK  193  A    between atoms: _458  and  _459
REMARK  194  A    between atoms: _469  and  _471
REMARK  195  A    between atoms: _471  and  _472
REMARK  196  A    between atoms: _471  and  _474
REMARK  197  A    between atoms: _474  and  _475
REMARK  198  A    between atoms: _475  and  _476
REMARK  199  A    between atoms: _479  and  _481
REMARK  200  A    between atoms: _481  and  _482
REMARK  201  A    between atoms: _481  and  _484
REMARK  202  A    between atoms: _484  and  _485
REMARK  203  A    between atoms: _487  and  _489
REMARK  204  A    between atoms: _489  and  _490
REMARK  205  A    between atoms: _489  and  _492
REMARK  206  A    between atoms: _492  and  _493
REMARK  207  A    between atoms: _499  and  _501
REMARK  208  A    between atoms: _501  and  _502
REMARK  209  A    between atoms: _501  and  _504
REMARK  210  A    between atoms: _504  and  _505
REMARK  211  A    between atoms: _508  and  _510
REMARK  212  A    between atoms: _510  and  _511
REMARK  213  A    between atoms: _510  and  _513
REMARK  214  A    between atoms: _516  and  _518
REMARK  215  A    between atoms: _518  and  _519
REMARK  216  A    between atoms: _518  and  _521
REMARK  217  A    between atoms: _521  and  _522
REMARK  218  A    between atoms: _525  and  _527
REMARK  219  A    between atoms: _527  and  _528
REMARK  220  A    between atoms: _527  and  _530
REMARK  221  A    between atoms: _530  and  _531
REMARK  222  A    between atoms: _531  and  _532
REMARK  223  A    between atoms: _532  and  _533
REMARK  224  A    between atoms: _533  and  _534
REMARK  225  A    between atoms: _538  and  _540
REMARK  226  A    between atoms: _540  and  _541
REMARK  227  A    between atoms: _540  and  _543
REMARK  228  A    between atoms: _546  and  _548
REMARK  229  A    between atoms: _548  and  _549
REMARK  230  A    between atoms: _548  and  _551
REMARK  231  A    between atoms: _551  and  _552
REMARK                            x       y       z     vdW  Elec       q    Type
REMARK                         _______ _______ _______ _____ _____    ______ ____
ROOT
ATOM      1  C   ASP A   1      -3.436   4.897  24.444  0.00  0.00    +0.239 C 
ATOM      2  O   ASP A   1      -3.510   4.058  25.343  0.00  0.00    -0.274 OA
ATOM      3  N   ALA A   2      -3.523   6.214  24.678  0.00  0.00    -0.298 N 
ATOM      4  H   ALA A   2      -3.441   6.880  23.884  0.00  0.00    +0.150 HD
ENDROOT
BRANCH   3   5
ATOM      5  CA  ALA A   2      -3.732   6.734  26.038  0.00  0.00    +0.137 C 
ATOM      6  CB  ALA A   2      -3.569   8.256  26.066  0.00  0.00    +0.030 C 
BRANCH   5   7
ATOM      7  C   ALA A   2      -5.122   6.315  26.547  0.00  0.00    +0.227 C 
ATOM      8  O   ALA A   2      -5.293   5.986  27.729  0.00  0.00    -0.286 OA
ENDBRANCH   5   7
ENDBRANCH   3   5
BRANCH   1   9
ATOM      9  CA  ASP A   1      -3.216   4.462  22.984  0.00  0.00    +0.156 C 
BRANCH   9  10
ATOM     10  N   ASP A   1      -4.062   5.224  22.042  0.00  0.00    -0.238 NA
ATOM     11  H   ASP A   1      -3.613   5.814  21.313  0.00  0.00    +0.142 HD
ENDBRANCH   9  10
BRANCH   9  12
ATOM     12  CB  ASP A   1      -1.724   4.650  22.665  0.00  0.00    +0.140 C 
BRANCH  12  13
ATOM     13  CG  ASP A   1      -1.335   4.152  21.299  0.00  0.00    +0.367 C 
ATOM     14  OD2 ASP A   1      -0.255   4.587  20.832  0.00  0.00    -0.246 OA
ATOM     15  OD1 ASP A   1      -2.091   3.365  20.679  0.00  0.00    -0.246 OA
ENDBRANCH  12  13
ENDBRANCH   9  12
ENDBRANCH   1   9
TORSDOF 6
REMARK  Name = ../refined-set-2016/4cwt/4cwt_pocket.pdb
REMARK  231 active torsions:
REMARK  status: ('A' for Active; 'I' for Inactive)
REMARK    1  A    between atoms: _1  and  _3
REMARK    2  A    between atoms: _3  and  _4
REMARK    3  A    between atoms: _3  and  _6
REMARK    4  A    between atoms: _6  and  _7
REMARK    5  A    between atoms: _13  and  _15
REMARK    6  A    between atoms: _15  and  _16
REMARK    7  A    between atoms: _19  and  _21
REMARK    8  A    between atoms: _21  and  _22
REMARK    9  A    between atoms: _21  and  _24
REMARK   10  A    between atoms: _24  and  _25
REMARK   11  A    between atoms: _31  and  _33
REMARK   12  A    between atoms: _33  and  _34
REMARK   13  A    between atoms: _33  and  _36
REMARK   14  A    between atoms: _36  and  _37
REMARK   15  A    between atoms: _37  and  _38
REMARK   16  A    between atoms: _43  and  _45
REMARK   17  A    between atoms: _45  and  _46
REMARK   18  A    between atoms: _45  and  _48
REMARK   19  A    between atoms: _48  and  _49
REMARK   20  A    between atoms: _52  and  _54
REMARK   21  A    between atoms: _54  and  _55
REMARK   22  A    between atoms: _54  and  _57
REMARK   23  A    between atoms: _57  and  _58
REMARK   24  A    between atoms: _61  and  _63
REMARK   25  A    between atoms: _63  and  _64
REMARK   26  A    between atoms: _63  and  _66
REMARK   27  A    between atoms: _66  and  _67
REMARK   28  A    between atoms: _67  and  _68
REMARK   29  A    between atoms: _70  and  _72
REMARK   30  A    between atoms: _72  and  _73
REMARK   31  A    between atoms: _72  and  _75
REMARK   32  A    between atoms: _75  and  _76
REMARK   33  A    between atoms: _76  and  _77
REMARK   34  A    between atoms: _80  and  _82
REMARK   35  A    between atoms: _82  and  _83
REMARK   36  A    between atoms: _82  and  _85
REMARK   37  A    between atoms: _85  and  _86
REMARK   38  A    between atoms: _89  and  _91
REMARK   39  A    between atoms: _91  and  _92
REMARK   40  A    between atoms: _91  and  _94
REMARK   41  A    between atoms: _94  and  _95
REMARK   42  A    between atoms: _97  and  _99
REMARK   43  A    between atoms: _99  and  _100
REMARK   44  A    between atoms: _99  and  _102
REMARK   45  A    between atoms: _102  and  _103
REMARK   46  A    between atoms: _108  and  _110
REMARK   47  A    between atoms: _110  and  _111
REMARK   48  A    between atoms: _110  and  _113
REMARK   49  A    between atoms: _113  and  _114
REMARK   50  A    between atoms: _116  and  _118
REMARK   51  A    between atoms: _118  and  _119
REMARK   52  A    between atoms: _118  and  _121
REMARK   53  A    between atoms: _121  and  _122
REMARK   54  A    between atoms: _125  and  _127
REMARK   55  A    between atoms: _127  and  _128
REMARK   56  A    between atoms: _131  and  _133
REMARK   57  A    between atoms: _133  and  _134
REMARK   58  A    between atoms: _133  and  _136
REMARK   59  A    between atoms: _136  and  _137
REMARK   60  A    between atoms: _137  and  _138
REMARK   61  A    between atoms: _138  and  _139
REMARK   62  A    between atoms: _139  and  _140
REMARK   63  A    between atoms: _144  and  _146
REMARK   64  A    between atoms: _146  and  _147
REMARK   65  A    between atoms: _146  and  _149
REMARK   66  A    between atoms: _149  and  _150
REMARK   67  A    between atoms: _153  and  _155
REMARK   68  A    between atoms: _155  and  _156
REMARK   69  A    between atoms: _158  and  _160
REMARK   70  A    between atoms: _160  and  _161
REMARK   71  A    between atoms: _160  and  _163
REMARK   72  A    between atoms: _163  and  _164
REMARK   73  A    between atoms: _164  and  _165
REMARK   74  A    between atoms: _167  and  _169
REMARK   75  A    between atoms: _169  and  _170
REMARK   76  A    between atoms: _169  and  _172
REMARK   77  A    between atoms: _172  and  _173
REMARK   78  A    between atoms: _176  and  _178
REMARK   79  A    between atoms: _178  and  _179
REMARK   80  A    between atoms: _178  and  _181
REMARK   81  A    between atoms: _181  and  _182
REMARK   82  A    between atoms: _182  and  _183
REMARK   83  A    between atoms: _183  and  _184
REMARK   84  A    between atoms: _184  and  _185
REMARK   85  A    between atoms: _189  and  _191
REMARK   86  A    between atoms: _191  and  _192
REMARK   87  A    between atoms: _195  and  _197
REMARK   88  A    between atoms: _197  and  _198
REMARK   89  A    between atoms: _197  and  _200
REMARK   90  A    between atoms: _200  and  _201
REMARK   91  A    between atoms: _204  and  _206
REMARK   92  A    between atoms: _206  and  _207
REMARK   93  A    between atoms: _206  and  _209
REMARK   94  A    between atoms: _209  and  _210
REMARK   95  A    between atoms: _213  and  _215
REMARK   96  A    between atoms: _215  and  _216
REMARK   97  A    between atoms: _215  and  _218
REMARK   98  A    between atoms: _218  and  _219
REMARK   99  A    between atoms: _222  and  _224
REMARK  100  A    between atoms: _224  and  _225
REMARK  101  A    between atoms: _224  and  _227
REMARK  102  A    between atoms: _227  and  _228
REMARK  103  A    between atoms: _233  and  _235
REMARK  104  A    between atoms: _235  and  _236
REMARK  105  A    between atoms: _235  and  _238
REMARK  106  A    between atoms: _238  and  _239
REMARK  107  A    between atoms: _244  and  _246
REMARK  108  A    between atoms: _246  and  _247
REMARK  109  A    between atoms: _246  and  _249
REMARK  110  A    between atoms: _249  and  _250
REMARK  111  A    between atoms: _253  and  _255
REMARK  112  A    between atoms: _255  and  _256
REMARK  113  A    between atoms: _258  and  _260
REMARK  114  A    between atoms: _260  and  _261
REMARK  115  A    between atoms: _260  and  _263
REMARK  116  A    between atoms: _263  and  _264
REMARK  117  A    between atoms: _267  and  _269
REMARK  118  A    between atoms: _269  and  _270
REMARK  119  A    between atoms: _269  and  _272
REMARK  120  A    between atoms: _272  and  _273
REMARK  121  A    between atoms: _276  and  _278
REMARK  122  A    between atoms: _278  and  _279
REMARK  123  A    between atoms: _282  and  _284
REMARK  124  A    between atoms: _284  and  _285
REMARK  125  A    between atoms: _284  and  _287
REMARK  126  A    between atoms: _287  and  _288
REMARK  127  A    between atoms: _288  and  _289
REMARK  128  A    between atoms: _289  and  _290
REMARK  129  A    between atoms: _290  and  _291
REMARK  130  A    between atoms: _295  and  _297
REMARK  131  A    between atoms: _297  and  _298
REMARK  132  A    between atoms: _300  and  _302
REMARK  133  A    between atoms: _302  and  _303
REMARK  134  A    between atoms: _302  and  _305
REMARK  135  A    between atoms: _305  and  _306
REMARK  136  A    between atoms: _309  and  _311
REMARK  137  A    between atoms: _311  and  _312
REMARK  138  A    between atoms: _311  and  _314
REMARK  139  A    between atoms: _314  and  _315
REMARK  140  A    between atoms: _321  and  _323
REMARK  141  A    between atoms: _323  and  _324
REMARK  142  A    between atoms: _326  and  _328
REMARK  143  A    between atoms: _328  and  _329
REMARK  144  A    between atoms: _328  and  _331
REMARK  145  A    between atoms: _334  and  _336
REMARK  146  A    between atoms: _336  and  _337
REMARK  147  A    between atoms: _339  and  _341
REMARK  148  A    between atoms: _341  and  _342
REMARK  149  A    between atoms: _341  and  _344
REMARK  150  A    between atoms: _344  and  _345
REMARK  151  A    between atoms: _351  and  _353
REMARK  152  A    between atoms: _353  and  _354
REMARK  153  A    between atoms: _353  and  _356
REMARK  154  A    between atoms: _356  and  _357
REMARK  155  A    between atoms: _362  and  _363
REMARK  156  A    between atoms: _365  and  _367
REMARK  157  A    between atoms: _367  and  _368
REMARK  158  A    between atoms: _367  and  _370
REMARK  159  A    between atoms: _370  and  _371
REMARK  160  A    between atoms: _376  and  _377
REMARK  161  A    between atoms: _379  and  _381
REMARK  162  A    between atoms: _381  and  _382
REMARK  163  A    between atoms: _381  and  _384
REMARK  164  A    between atoms: _387  and  _389
REMARK  165  A    between atoms: _389  and  _390
REMARK  166  A    between atoms: _389  and  _392
REMARK  167  A    between atoms: _392  and  _393
REMARK  168  A    between atoms: _396  and  _398
REMARK  169  A    between atoms: _398  and  _399
REMARK  170  A    between atoms: _398  and  _401
REMARK  171  A    between atoms: _404  and  _406
REMARK  172  A    between atoms: _406  and  _407
REMARK  173  A    between atoms: _406  and  _409
REMARK  174  A    between atoms: _409  and  _410
REMARK  175  A    between atoms: _413  and  _415
REMARK  176  A    between atoms: _415  and  _416
REMARK  177  A    between atoms: _415  and  _418
REMARK  178  A    between atoms: _418  and  _419
REMARK  179  A    between atoms: _422  and  _424
REMARK  180  A    between atoms: _424  and  _425
REMARK  181  A    between atoms: _424  and  _427
REMARK  182  A    between atoms: _427  and  _428
REMARK  183  A    between atoms: _433  and  _435
REMARK  184  A    between atoms: _435  and  _436
REMARK  185  A    between atoms: _435  and  _438
REMARK  186  A    between atoms: _438  and  _439
REMARK  187  A    between atoms: _444  and  _445
REMARK  188  A    between atoms: _447  and  _449
REMARK  189  A    between atoms: _449  and  _450
REMARK  190  A    between atoms: _453  and  _455
REMARK  191  A    between atoms: _455  and  _456
REMARK  192  A    between atoms: _455  and  _458
REMARK  193  A    between atoms: _458  and  _459
REMARK  194  A    between atoms: _469  and  _471
REMARK  195  A    between atoms: _471  and  _472
REMARK  196  A    between atoms: _471  and  _474
REMARK  197  A    between atoms: _474  and  _475
REMARK  198  A    between atoms: _475  and  _476
REMARK  199  A    between atoms: _479  and  _481
REMARK  200  A    between atoms: _481  and  _482
REMARK  201  A    between atoms: _481  and  _484
REMARK  202  A    between atoms: _484  and  _485
REMARK  203  A    between atoms: _487  and  _489
REMARK  204  A    between atoms: _489  and  _490
REMARK  205  A    between atoms: _489  and  _492
REMARK  206  A    between atoms: _492  and  _493
REMARK  207  A    between atoms: _499  and  _501
REMARK  208  A    between atoms: _501  and  _502
REMARK  209  A    between atoms: _501  and  _504
REMARK  210  A    between atoms: _504  and  _505
REMARK  211  A    between atoms: _508  and  _510
REMARK  212  A    between atoms: _510  and  _511
REMARK  213  A    between atoms: _510  and  _513
REMARK  214  A    between atoms: _516  and  _518
REMARK  215  A    between atoms: _518  and  _519
REMARK  216  A    between atoms: _518  and  _521
REMARK  217  A    between atoms: _521  and  _522
REMARK  218  A    between atoms: _525  and  _527
REMARK  219  A    between atoms: _527  and  _528
REMARK  220  A    between atoms: _527  and  _530
REMARK  221  A    between atoms: _530  and  _531
REMARK  222  A    between atoms: _531  and  _532
REMARK  223  A    between atoms: _532  and  _533
REMARK  224  A    between atoms: _533  and  _534
REMARK  225  A    between atoms: _538  and  _540
REMARK  226  A    between atoms: _540  and  _541
REMARK  227  A    between atoms: _540  and  _543
REMARK  228  A    between atoms: _546  and  _548
REMARK  229  A    between atoms: _548  and  _549
REMARK  230  A    between atoms: _548  and  _551
REMARK  231  A    between atoms: _551  and  _552
REMARK                            x       y       z     vdW  Elec       q    Type
REMARK                         _______ _______ _______ _____ _____    ______ ____
ROOT
ATOM      1  CG  LYS A   1      -2.005   2.841  28.098  0.00  0.00    -0.000 C 
ENDROOT
BRANCH   1   2
ATOM      2  CB  LYS A   1      -3.172   3.331  28.963  0.00  0.00    +0.025 C 
BRANCH   2   3
ATOM      3  CA  LYS A   1      -4.428   2.456  28.832  0.00  0.00    +0.133 C 
BRANCH   3   4
ATOM      4  N   LYS A   1      -5.075   2.645  27.529  0.00  0.00    -0.239 NA
ATOM      5  H   LYS A   1      -4.734   3.394  26.893  0.00  0.00    +0.142 HD
ENDBRANCH   3   4
BRANCH   3   6
ATOM      6  C   LYS A   1      -5.374   2.685  30.023  0.00  0.00    +0.224 C 
ATOM      7  O   LYS A   1      -5.444   1.852  30.945  0.00  0.00    -0.287 OA
ENDBRANCH   3   6
ENDBRANCH   2   3
ENDBRANCH   1   2
BRANCH   1   8
ATOM      8  CD  LYS A   1      -0.866   3.856  28.091  0.00  0.00    -0.024 C 
BRANCH   8   9
ATOM      9  CE  LYS A   1       0.132   3.557  26.984  0.00  0.00    -0.086 C 
BRANCH   9  10
ATOM     10  NZ  LYS A   1       1.162   4.640  26.893  0.00  0.00    +0.380 N 
ATOM     11  HZ1 LYS A   1       1.672   4.708  27.797  0.00  0.00    -0.089 HD
ATOM     12  HZ2 LYS A   1       0.694   5.546  26.688  0.00  0.00    -0.089 HD
ATOM     13  HZ3 LYS A   1       1.833   4.415  26.131  0.00  0.00    -0.089 HD
ENDBRANCH   9  10
ENDBRANCH   8   9
ENDBRANCH   1   8
TORSDOF 7
REMARK  Name = ../refined-set-2016/4cwt/4cwt_pocket.pdb
REMARK  231 active torsions:
REMARK  status: ('A' for Active; 'I' for Inactive)
REMARK    1  A    between atoms: _1  and  _3
REMARK    2  A    between atoms: _3  and  _4
REMARK    3  A    between atoms: _3  and  _6
REMARK    4  A    between atoms: _6  and  _7
REMARK    5  A    between atoms: _13  and  _15
REMARK    6  A    between atoms: _15  and  _16
REMARK    7  A    between atoms: _19  and  _21
REMARK    8  A    between atoms: _21  and  _22
REMARK    9  A    between atoms: _21  and  _24
REMARK   10  A    between atoms: _24  and  _25
REMARK   11  A    between atoms: _31  and  _33
REMARK   12  A    between atoms: _33  and  _34
REMARK   13  A    between atoms: _33  and  _36
REMARK   14  A    between atoms: _36  and  _37
REMARK   15  A    between atoms: _37  and  _38
REMARK   16  A    between atoms: _43  and  _45
REMARK   17  A    between atoms: _45  and  _46
REMARK   18  A    between atoms: _45  and  _48
REMARK   19  A    between atoms: _48  and  _49
REMARK   20  A    between atoms: _52  and  _54
REMARK   21  A    between atoms: _54  and  _55
REMARK   22  A    between atoms: _54  and  _57
REMARK   23  A    between atoms: _57  and  _58
REMARK   24  A    between atoms: _61  and  _63
REMARK   25  A    between atoms: _63  and  _64
REMARK   26  A    between atoms: _63  and  _66
REMARK   27  A    between atoms: _66  and  _67
REMARK   28  A    between atoms: _67  and  _68
REMARK   29  A    between atoms: _70  and  _72
REMARK   30  A    between atoms: _72  and  _73
REMARK   31  A    between atoms: _72  and  _75
REMARK   32  A    between atoms: _75  and  _76
REMARK   33  A    between atoms: _76  and  _77
REMARK   34  A    between atoms: _80  and  _82
REMARK   35  A    between atoms: _82  and  _83
REMARK   36  A    between atoms: _82  and  _85
REMARK   37  A    between atoms: _85  and  _86
REMARK   38  A    between atoms: _89  and  _91
REMARK   39  A    between atoms: _91  and  _92
REMARK   40  A    between atoms: _91  and  _94
REMARK   41  A    between atoms: _94  and  _95
REMARK   42  A    between atoms: _97  and  _99
REMARK   43  A    between atoms: _99  and  _100
REMARK   44  A    between atoms: _99  and  _102
REMARK   45  A    between atoms: _102  and  _103
REMARK   46  A    between atoms: _108  and  _110
REMARK   47  A    between atoms: _110  and  _111
REMARK   48  A    between atoms: _110  and  _113
REMARK   49  A    between atoms: _113  and  _114
REMARK   50  A    between atoms: _116  and  _118
REMARK   51  A    between atoms: _118  and  _119
REMARK   52  A    between atoms: _118  and  _121
REMARK   53  A    between atoms: _121  and  _122
REMARK   54  A    between atoms: _125  and  _127
REMARK   55  A    between atoms: _127  and  _128
REMARK   56  A    between atoms: _131  and  _133
REMARK   57  A    between atoms: _133  and  _134
REMARK   58  A    between atoms: _133  and  _136
REMARK   59  A    between atoms: _136  and  _137
REMARK   60  A    between atoms: _137  and  _138
REMARK   61  A    between atoms: _138  and  _139
REMARK   62  A    between atoms: _139  and  _140
REMARK   63  A    between atoms: _144  and  _146
REMARK   64  A    between atoms: _146  and  _147
REMARK   65  A    between atoms: _146  and  _149
REMARK   66  A    between atoms: _149  and  _150
REMARK   67  A    between atoms: _153  and  _155
REMARK   68  A    between atoms: _155  and  _156
REMARK   69  A    between atoms: _158  and  _160
REMARK   70  A    between atoms: _160  and  _161
REMARK   71  A    between atoms: _160  and  _163
REMARK   72  A    between atoms: _163  and  _164
REMARK   73  A    between atoms: _164  and  _165
REMARK   74  A    between atoms: _167  and  _169
REMARK   75  A    between atoms: _169  and  _170
REMARK   76  A    between atoms: _169  and  _172
REMARK   77  A    between atoms: _172  and  _173
REMARK   78  A    between atoms: _176  and  _178
REMARK   79  A    between atoms: _178  and  _179
REMARK   80  A    between atoms: _178  and  _181
REMARK   81  A    between atoms: _181  and  _182
REMARK   82  A    between atoms: _182  and  _183
REMARK   83  A    between atoms: _183  and  _184
REMARK   84  A    between atoms: _184  and  _185
REMARK   85  A    between atoms: _189  and  _191
REMARK   86  A    between atoms: _191  and  _192
REMARK   87  A    between atoms: _195  and  _197
REMARK   88  A    between atoms: _197  and  _198
REMARK   89  A    between atoms: _197  and  _200
REMARK   90  A    between atoms: _200  and  _201
REMARK   91  A    between atoms: _204  and  _206
REMARK   92  A    between atoms: _206  and  _207
REMARK   93  A    between atoms: _206  and  _209
REMARK   94  A    between atoms: _209  and  _210
REMARK   95  A    between atoms: _213  and  _215
REMARK   96  A    between atoms: _215  and  _216
REMARK   97  A    between atoms: _215  and  _218
REMARK   98  A    between atoms: _218  and  _219
REMARK   99  A    between atoms: _222  and  _224
REMARK  100  A    between atoms: _224  and  _225
REMARK  101  A    between atoms: _224  and  _227
REMARK  102  A    between atoms: _227  and  _228
REMARK  103  A    between atoms: _233  and  _235
REMARK  104  A    between atoms: _235  and  _236
REMARK  105  A    between atoms: _235  and  _238
REMARK  106  A    between atoms: _238  and  _239
REMARK  107  A    between atoms: _244  and  _246
REMARK  108  A    between atoms: _246  and  _247
REMARK  109  A    between atoms: _246  and  _249
REMARK  110  A    between atoms: _249  and  _250
REMARK  111  A    between atoms: _253  and  _255
REMARK  112  A    between atoms: _255  and  _256
REMARK  113  A    between atoms: _258  and  _260
REMARK  114  A    between atoms: _260  and  _261
REMARK  115  A    between atoms: _260  and  _263
REMARK  116  A    between atoms: _263  and  _264
REMARK  117  A    between atoms: _267  and  _269
REMARK  118  A    between atoms: _269  and  _270
REMARK  119  A    between atoms: _269  and  _272
REMARK  120  A    between atoms: _272  and  _273
REMARK  121  A    between atoms: _276  and  _278
REMARK  122  A    between atoms: _278  and  _279
REMARK  123  A    between atoms: _282  and  _284
REMARK  124  A    between atoms: _284  and  _285
REMARK  125  A    between atoms: _284  and  _287
REMARK  126  A    between atoms: _287  and  _288
REMARK  127  A    between atoms: _288  and  _289
REMARK  128  A    between atoms: _289  and  _290
REMARK  129  A    between atoms: _290  and  _291
REMARK  130  A    between atoms: _295  and  _297
REMARK  131  A    between atoms: _297  and  _298
REMARK  132  A    between atoms: _300  and  _302
REMARK  133  A    between atoms: _302  and  _303
REMARK  134  A    between atoms: _302  and  _305
REMARK  135  A    between atoms: _305  and  _306
REMARK  136  A    between atoms: _309  and  _311
REMARK  137  A    between atoms: _311  and  _312
REMARK  138  A    between atoms: _311  and  _314
REMARK  139  A    between atoms: _314  and  _315
REMARK  140  A    between atoms: _321  and  _323
REMARK  141  A    between atoms: _323  and  _324
REMARK  142  A    between atoms: _326  and  _328
REMARK  143  A    between atoms: _328  and  _329
REMARK  144  A    between atoms: _328  and  _331
REMARK  145  A    between atoms: _334  and  _336
REMARK  146  A    between atoms: _336  and  _337
REMARK  147  A    between atoms: _339  and  _341
REMARK  148  A    between atoms: _341  and  _342
REMARK  149  A    between atoms: _341  and  _344
REMARK  150  A    between atoms: _344  and  _345
REMARK  151  A    between atoms: _351  and  _353
REMARK  152  A    between atoms: _353  and  _354
REMARK  153  A    between atoms: _353  and  _356
REMARK  154  A    between atoms: _356  and  _357
REMARK  155  A    between atoms: _362  and  _363
REMARK  156  A    between atoms: _365  and  _367
REMARK  157  A    between atoms: _367  and  _368
REMARK  158  A    between atoms: _367  and  _370
REMARK  159  A    between atoms: _370  and  _371
REMARK  160  A    between atoms: _376  and  _377
REMARK  161  A    between atoms: _379  and  _381
REMARK  162  A    between atoms: _381  and  _382
REMARK  163  A    between atoms: _381  and  _384
REMARK  164  A    between atoms: _387  and  _389
REMARK  165  A    between atoms: _389  and  _390
REMARK  166  A    between atoms: _389  and  _392
REMARK  167  A    between atoms: _392  and  _393
REMARK  168  A    between atoms: _396  and  _398
REMARK  169  A    between atoms: _398  and  _399
REMARK  170  A    between atoms: _398  and  _401
REMARK  171  A    between atoms: _404  and  _406
REMARK  172  A    between atoms: _406  and  _407
REMARK  173  A    between atoms: _406  and  _409
REMARK  174  A    between atoms: _409  and  _410
REMARK  175  A    between atoms: _413  and  _415
REMARK  176  A    between atoms: _415  and  _416
REMARK  177  A    between atoms: _415  and  _418
REMARK  178  A    between atoms: _418  and  _419
REMARK  179  A    between atoms: _422  and  _424
REMARK  180  A    between atoms: _424  and  _425
REMARK  181  A    between atoms: _424  and  _427
REMARK  182  A    between atoms: _427  and  _428
REMARK  183  A    between atoms: _433  and  _435
REMARK  184  A    between atoms: _435  and  _436
REMARK  185  A    between atoms: _435  and  _438
REMARK  186  A    between atoms: _438  and  _439
REMARK  187  A    between atoms: _444  and  _445
REMARK  188  A    between atoms: _447  and  _449
REMARK  189  A    between atoms: _449  and  _450
REMARK  190  A    between atoms: _453  and  _455
REMARK  191  A    between atoms: _455  and  _456
REMARK  192  A    between atoms: _455  and  _458
REMARK  193  A    between atoms: _458  and  _459
REMARK  194  A    between atoms: _469  and  _471
REMARK  195  A    between atoms: _471  and  _472
REMARK  196  A    between atoms: _471  and  _474
REMARK  197  A    between atoms: _474  and  _475
REMARK  198  A    between atoms: _475  and  _476
REMARK  199  A    between atoms: _479  and  _481
REMARK  200  A    between atoms: _481  and  _482
REMARK  201  A    between atoms: _481  and  _484
REMARK  202  A    between atoms: _484  and  _485
REMARK  203  A    between atoms: _487  and  _489
REMARK  204  A    between atoms: _489  and  _490
REMARK  205  A    between atoms: _489  and  _492
REMARK  206  A    between atoms: _492  and  _493
REMARK  207  A    between atoms: _499  and  _501
REMARK  208  A    between atoms: _501  and  _502
REMARK  209  A    between atoms: _501  and  _504
REMARK  210  A    between atoms: _504  and  _505
REMARK  211  A    between atoms: _508  and  _510
REMARK  212  A    between atoms: _510  and  _511
REMARK  213  A    between atoms: _510  and  _513
REMARK  214  A    between atoms: _516  and  _518
REMARK  215  A    between atoms: _518  and  _519
REMARK  216  A    between atoms: _518  and  _521
REMARK  217  A    between atoms: _521  and  _522
REMARK  218  A    between atoms: _525  and  _527
REMARK  219  A    between atoms: _527  and  _528
REMARK  220  A    between atoms: _527  and  _530
REMARK  221  A    between atoms: _530  and  _531
REMARK  222  A    between atoms: _531  and  _532
REMARK  223  A    between atoms: _532  and  _533
REMARK  224  A    between atoms: _533  and  _534
REMARK  225  A    between atoms: _538  and  _540
REMARK  226  A    between atoms: _540  and  _541
REMARK  227  A    between atoms: _540  and  _543
REMARK  228  A    between atoms: _546  and  _548
REMARK  229  A    between atoms: _548  and  _549
REMARK  230  A    between atoms: _548  and  _551
REMARK  231  A    between atoms: _551  and  _552
REMARK                            x       y       z     vdW  Elec       q    Type
REMARK                         _______ _______ _______ _____ _____    ______ ____
ROOT
ATOM      1  CA  ILE A   9      10.915  14.869  32.448  0.00  0.00    +0.149 C 
ENDROOT
BRANCH   1   2
ATOM      2  C   ILE A   9      11.923  13.744  32.149  0.00  0.00    +0.241 C 
ATOM      3  N   ASN A  10      11.555  12.502  32.457  0.00  0.00    -0.297 N 
ATOM      4  H   ASN A  10      10.593  12.338  32.816  0.00  0.00    +0.150 HD
ATOM      5  O   ILE A   9      13.015  14.012  31.638  0.00  0.00    -0.273 OA
BRANCH   3   6
ATOM      6  CA  ASN A  10      12.460  11.357  32.307  0.00  0.00    +0.158 C 
BRANCH   6   7
ATOM      7  C   ASN A  10      11.958  10.231  31.387  0.00  0.00    +0.241 C 
ATOM      8  N   ASN A  11      10.745   9.737  31.634  0.00  0.00    -0.297 N 
ATOM      9  H   ASN A  11      10.119  10.228  32.304  0.00  0.00    +0.150 HD
ATOM     10  O   ASN A  10      12.673   9.812  30.478  0.00  0.00    -0.273 OA
BRANCH   8  11
ATOM     11  CA  ASN A  11      10.278   8.507  30.973  0.00  0.00    +0.158 C 
BRANCH  11  12
ATOM     12  C   ASN A  11      10.218   8.591  29.454  0.00  0.00    +0.241 C 
ATOM     13  N   LEU A  12       9.553   9.624  28.941  0.00  0.00    -0.297 N 
ATOM     14  H   LEU A  12       9.153  10.343  29.577  0.00  0.00    +0.150 HD
ATOM     15  O   ASN A  11      10.761   7.735  28.754  0.00  0.00    -0.273 OA
BRANCH  13  16
ATOM     16  CA  LEU A  12       9.377   9.763  27.498  0.00  0.00    +0.149 C 
BRANCH  16  17
ATOM     17  C   LEU A  12      10.682  10.112  26.783  0.00  0.00    +0.241 C 
ATOM     18  N   GLY A  13      11.617  10.689  27.532  0.00  0.00    -0.295 N 
ATOM     19  H   GLY A  13      11.380  10.963  28.507  0.00  0.00    +0.150 HD
ATOM     20  O   LEU A  12      10.833   9.864  25.580  0.00  0.00    -0.273 OA
BRANCH  18  21
ATOM     21  CA  GLY A  13      12.970  10.952  27.032  0.00  0.00    +0.176 C 
BRANCH  21  22
ATOM     22  C   GLY A  13      13.792   9.685  26.850  0.00  0.00    +0.243 C 
ATOM     23  N   THR A  14      13.671   8.761  27.804  0.00  0.00    -0.295 N 
ATOM     24  H   THR A  14      13.109   8.972  28.653  0.00  0.00    +0.150 HD
ATOM     25  O   GLY A  13      14.544   9.551  25.864  0.00  0.00    -0.273 OA
BRANCH  23  26
ATOM     26  CA  THR A  14      14.317   7.453  27.674  0.00  0.00    +0.176 C 
BRANCH  26  27
ATOM     27  C   THR A  14      13.789   6.687  26.437  0.00  0.00    +0.243 C 
ATOM     28  N   ILE A  15      12.466   6.623  26.289  0.00  0.00    -0.297 N 
ATOM     29  H   ILE A  15      11.855   7.020  27.031  0.00  0.00    +0.150 HD
ATOM     30  O   THR A  14      14.572   6.168  25.630  0.00  0.00    -0.273 OA
BRANCH  28  31
ATOM     31  CA  ILE A  15      11.843   6.004  25.100  0.00  0.00    +0.149 C 
BRANCH  31  32
ATOM     32  C   ILE A  15      12.243   6.715  23.786  0.00  0.00    +0.241 C 
ATOM     33  N   ALA A  16      12.183   8.046  23.786  0.00  0.00    -0.297 N 
ATOM     34  H   ALA A  16      11.847   8.539  24.638  0.00  0.00    +0.150 HD
ATOM     35  O   ILE A  15      12.612   6.066  22.797  0.00  0.00    -0.273 OA
BRANCH  33  36
ATOM     36  CA  ALA A  16      12.579   8.832  22.614  0.00  0.00    +0.149 C 
ATOM     37  CB  ALA A  16      12.309  10.329  22.832  0.00  0.00    +0.031 C 
BRANCH  36  38
ATOM     38  C   ALA A  16      14.034   8.589  22.164  0.00  0.00    +0.241 C 
ATOM     39  N   LYS A  17      14.946   8.350  23.111  0.00  0.00    -0.298 N 
ATOM     40  H   LYS A  17      14.656   8.275  24.107  0.00  0.00    +0.150 HD
ATOM     41  O   ALA A  16      14.322   8.617  20.954  0.00  0.00    -0.273 OA
BRANCH  39  42
ATOM     42  CA  LYS A  17      16.351   8.194  22.743  0.00  0.00    +0.137 C 
BRANCH  42  43
ATOM     43  C   LYS A  17      16.557   6.924  21.918  0.00  0.00    +0.227 C 
ATOM     44  O   LYS A  17      17.116   6.985  20.823  0.00  0.00    -0.286 OA
ENDBRANCH  42  43
BRANCH  42  45
ATOM     45  CB  LYS A  17      17.285   8.212  23.955  0.00  0.00    +0.028 C 
BRANCH  45  46
ATOM     46  CG  LYS A  17      18.760   8.222  23.545  0.00  0.00    -0.000 C 
BRANCH  46  47
ATOM     47  CD  LYS A  17      19.674   8.174  24.755  0.00  0.00    -0.024 C 
BRANCH  47  48
ATOM     48  CE  LYS A  17      21.125   8.015  24.336  0.00  0.00    -0.086 C 
BRANCH  48  49
ATOM     49  NZ  LYS A  17      22.005   8.204  25.517  0.00  0.00    +0.380 N 
ATOM     50  HZ1 LYS A  17      21.772   7.492  26.239  0.00  0.00    -0.089 HD
ATOM     51  HZ2 LYS A  17      21.859   9.157  25.908  0.00  0.00    -0.089 HD
ATOM     52  HZ3 LYS A  17      22.998   8.095  25.229  0.00  0.00    -0.089 HD
ENDBRANCH  48  49
ENDBRANCH  47  48
ENDBRANCH  46  47
ENDBRANCH  45  46
ENDBRANCH  42  45
ENDBRANCH  39  42
ENDBRANCH  36  38
ENDBRANCH  33  36
ENDBRANCH  31  32
BRANCH  31  53
ATOM     53  CB  ILE A  15      10.307   5.952  25.253  0.00  0.00    +0.027 C 
ATOM     54  CG2 ILE A  15       9.640   5.558  23.945  0.00  0.00    +0.002 C 
BRANCH  53  55
ATOM     55  CG1 ILE A  15       9.922   4.953  26.347  0.00  0.00    +0.002 C 
ATOM     56  CD1 ILE A  15       8.544   5.207  26.913  0.00  0.00    +0.000 C 
ENDBRANCH  53  55
ENDBRANCH  31  53
ENDBRANCH  28  31
ENDBRANCH  26  27
BRANCH  26  57
ATOM     57  CB  THR A  14      14.147   6.617  28.962  0.00  0.00    +0.137 C 
ATOM     58  CG2 THR A  14      14.933   5.318  28.866  0.00  0.00    +0.034 C 
BRANCH  57  59
ATOM     59  OG1 THR A  14      14.634   7.369  30.080  0.00  0.00    -0.382 OA
ATOM     60  HG1 THR A  14      14.119   8.211  30.159  0.00  0.00    +0.210 HD
ENDBRANCH  57  59
ENDBRANCH  26  57
ENDBRANCH  23  26
ENDBRANCH  21  22
ENDBRANCH  18  21
ENDBRANCH  16  17
BRANCH  16  61
ATOM     61  CB  LEU A  12       8.275  10.778  27.189  0.00  0.00    +0.029 C 
BRANCH  61  62
ATOM     62  CG  LEU A  12       6.924  10.344  27.752  0.00  0.00    +0.002 C 
ATOM     63  CD2 LEU A  12       5.937  11.497  27.625  0.00  0.00    +0.000 C 
ATOM     64  CD1 LEU A  12       6.423   9.083  27.036  0.00  0.00    +0.000 C 
ENDBRANCH  61  62
ENDBRANCH  16  61
ENDBRANCH  13  16
ENDBRANCH  11  12
BRANCH  11  65
ATOM     65  CB  ASN A  11       8.907   8.067  31.524  0.00  0.00    +0.114 C 
BRANCH  65  66
ATOM     66  CG  ASN A  11       8.917   7.852  33.026  0.00  0.00    +0.222 C 
ATOM     67  ND2 ASN A  11       7.739   7.947  33.647  0.00  0.00    -0.329 N 
ATOM     68 HD21 ASN A  11       7.679   7.797  34.674  0.00  0.00    +0.145 HD
ATOM     69 HD22 ASN A  11       6.881   8.171  33.103  0.00  0.00    +0.145 HD
ATOM     70  OD1 ASN A  11       9.969   7.589  33.621  0.00  0.00    -0.275 OA
ENDBRANCH  65  66
ENDBRANCH  11  65
ENDBRANCH   8  11
ENDBRANCH   6   7
BRANCH   6  71
ATOM     71  CB  ASN A  10      12.803  10.769  33.677  0.00  0.00    +0.114 C 
BRANCH  71  72
ATOM     72  CG  ASN A  10      13.670  11.692  34.500  0.00  0.00    +0.222 C 
ATOM     73  OD1 ASN A  10      13.204  12.302  35.457  0.00  0.00    -0.275 OA
ATOM     74  ND2 ASN A  10      14.936  11.820  34.113  0.00  0.00    -0.329 N 
ATOM     75 HD21 ASN A  10      15.575  12.458  34.628  0.00  0.00    +0.145 HD
ATOM     76 HD22 ASN A  10      15.287  11.282  33.295  0.00  0.00    +0.145 HD
ENDBRANCH  71  72
ENDBRANCH   6  71
ENDBRANCH   3   6
ENDBRANCH   1   2
BRANCH   1  78
ATOM     77  C   LEU A   8       8.934  14.952  31.059  0.00  0.00    +0.241 C 
ATOM     78  N   ILE A   9       9.521  14.529  32.171  0.00  0.00    -0.297 N 
ATOM     79  H   ILE A   9       8.985  13.952  32.850  0.00  0.00    +0.150 HD
ATOM     80  O   LEU A   8       9.540  15.569  30.188  0.00  0.00    -0.273 OA
BRANCH  77  81
ATOM     81  CA  LEU A   8       7.451  14.640  30.892  0.00  0.00    +0.149 C 
BRANCH  81  83
ATOM     82  C   ASP A   7       7.442  12.211  31.245  0.00  0.00    +0.241 C 
ATOM     83  N   LEU A   8       7.027  13.426  31.599  0.00  0.00    -0.297 N 
ATOM     84  H   LEU A   8       6.378  13.518  32.407  0.00  0.00    +0.150 HD
ATOM     85  O   ASP A   7       8.283  12.006  30.362  0.00  0.00    -0.273 OA
BRANCH  82  86
ATOM     86  CA  ASP A   7       6.798  11.052  32.002  0.00  0.00    +0.160 C 
BRANCH  86  88
ATOM     87  C   ALA A   6       8.134  11.435  34.029  0.00  0.00    +0.241 C 
ATOM     88  N   ASP A   7       6.946  11.234  33.451  0.00  0.00    -0.297 N 
ATOM     89  H   ASP A   7       6.096  11.205  34.049  0.00  0.00    +0.150 HD
ATOM     90  O   ALA A   6       9.207  11.344  33.420  0.00  0.00    -0.273 OA
BRANCH  87  91
ATOM     91  CA  ALA A   6       8.125  11.795  35.522  0.00  0.00    +0.149 C 
ATOM     92  CB  ALA A   6       8.094  10.539  36.381  0.00  0.00    +0.031 C 
BRANCH  91  94
ATOM     93  C   LYS A   5       6.919  13.935  35.350  0.00  0.00    +0.241 C 
ATOM     94  N   ALA A   6       7.029  12.711  35.883  0.00  0.00    -0.297 N 
ATOM     95  H   ALA A   6       6.318  12.397  36.574  0.00  0.00    +0.150 HD
ATOM     96  O   LYS A   5       7.734  14.395  34.546  0.00  0.00    -0.273 OA
BRANCH  93  97
ATOM     97  CA  LYS A   5       5.702  14.768  35.761  0.00  0.00    +0.149 C 
BRANCH  97  99
ATOM     98  C   THR A   4       4.082  13.222  34.862  0.00  0.00    +0.243 C 
ATOM     99  N   LYS A   5       4.515  13.924  35.906  0.00  0.00    -0.297 N 
ATOM    100  H   LYS A   5       4.015  13.874  36.816  0.00  0.00    +0.150 HD
ATOM    101  O   THR A   4       4.592  13.336  33.745  0.00  0.00    -0.273 OA
BRANCH  98 102
ATOM    102  CA  THR A   4       2.932  12.226  35.101  0.00  0.00    +0.176 C 
BRANCH 102 104
ATOM    103  C   MET A   3       1.438  12.487  33.154  0.00  0.00    +0.241 C 
ATOM    104  N   THR A   4       2.356  11.798  33.824  0.00  0.00    -0.295 N 
ATOM    105  H   THR A   4       2.686  10.900  33.417  0.00  0.00    +0.150 HD
ATOM    106  O   MET A   3       0.897  13.502  33.580  0.00  0.00    -0.273 OA
BRANCH 103 107
ATOM    107  CA  MET A   3       1.036  11.909  31.804  0.00  0.00    +0.149 C 
BRANCH 107 109
ATOM    108  C   GLY A   2      -1.129  11.006  31.153  0.00  0.00    +0.243 C 
ATOM    109  N   MET A   3      -0.405  12.016  31.613  0.00  0.00    -0.297 N 
ATOM    110  H   MET A   3      -0.879  12.912  31.845  0.00  0.00    +0.150 HD
ATOM    111  O   GLY A   2      -0.675   9.856  31.027  0.00  0.00    -0.273 OA
BRANCH 108 112
ATOM    112  CA  GLY A   2      -2.572  11.347  30.799  0.00  0.00    +0.176 C 
BRANCH 112 115
ATOM    113  C   ILE A   1      -3.762   9.333  31.453  0.00  0.00    +0.238 C 
ATOM    114  O   ILE A   1      -3.489   9.528  32.648  0.00  0.00    -0.274 OA
ATOM    115  N   GLY A   2      -3.391  10.173  30.495  0.00  0.00    -0.296 N 
ATOM    116  H   GLY A   2      -3.687   9.994  29.514  0.00  0.00    +0.150 HD
BRANCH 113 117
ATOM    117  CA  ILE A   1      -4.580   8.101  31.017  0.00  0.00    +0.145 C 
BRANCH 117 118
ATOM    118  N   ILE A   1      -5.191   8.277  29.705  0.00  0.00    -0.238 NA
ATOM    119  H   ILE A   1      -4.812   7.748  28.894  0.00  0.00    +0.142 HD
ENDBRANCH 117 118
BRANCH 117 120
ATOM    120  CB  ILE A   1      -3.754   6.796  31.039  0.00  0.00    +0.025 C 
ATOM    121  CG2 ILE A   1      -2.527   6.921  30.123  0.00  0.00    +0.002 C 
BRANCH 120 122
ATOM    122  CG1 ILE A   1      -3.405   6.376  32.468  0.00  0.00    +0.002 C 
ATOM    123  CD1 ILE A   1      -3.050   4.901  32.594  0.00  0.00    +0.000 C 
ENDBRANCH 120 122
ENDBRANCH 117 120
ENDBRANCH 113 117
ENDBRANCH 112 115
ENDBRANCH 108 112
ENDBRANCH 107 109
BRANCH 107 124
ATOM    124  CB  MET A   3       1.777  12.640  30.685  0.00  0.00    +0.041 C 
BRANCH 124 125
ATOM    125  CG  MET A   3       1.696  11.941  29.330  0.00  0.00    +0.060 C 
BRANCH 125 126
ATOM    126  SD  MET A   3       2.504  12.840  27.991  0.00  0.00    -0.139 S 
ATOM    127  CE  MET A   3       1.509  14.321  27.912  0.00  0.00    +0.069 C 
ENDBRANCH 125 126
ENDBRANCH 124 125
ENDBRANCH 107 124
ENDBRANCH 103 107
ENDBRANCH 102 104
BRANCH 102 128
ATOM    128  CB  THR A   4       3.509  11.022  35.864  0.00  0.00    +0.137 C 
ATOM    129  CG2 THR A   4       2.455   9.940  36.074  0.00  0.00    +0.034 C 
BRANCH 128 130
ATOM    130  OG1 THR A   4       4.606  10.471  35.121  0.00  0.00    -0.382 OA
ATOM    131  HG1 THR A   4       4.979   9.696  35.611  0.00  0.00    +0.210 HD
ENDBRANCH 128 130
ENDBRANCH 102 128
ENDBRANCH  98 102
ENDBRANCH  97  99
BRANCH  97 132
ATOM    132  CB  LYS A   5       5.987  15.575  37.038  0.00  0.00    +0.029 C 
BRANCH 132 133
ATOM    133  CG  LYS A   5       6.978  16.719  36.828  0.00  0.00    +0.000 C 
BRANCH 133 134
ATOM    134  CD  LYS A   5       7.177  17.546  38.093  0.00  0.00    -0.024 C 
BRANCH 134 135
ATOM    135  CE  LYS A   5       7.941  18.823  37.774  0.00  0.00    -0.086 C 
BRANCH 135 136
ATOM    136  NZ  LYS A   5       8.674  19.345  38.954  0.00  0.00    +0.380 N 
ATOM    137  HZ1 LYS A   5       7.998  19.553  39.716  0.00  0.00    -0.089 HD
ATOM    138  HZ2 LYS A   5       9.357  18.631  39.280  0.00  0.00    -0.089 HD
ATOM    139  HZ3 LYS A   5       9.179  20.215  38.690  0.00  0.00    -0.089 HD
ENDBRANCH 135 136
ENDBRANCH 134 135
ENDBRANCH 133 134
ENDBRANCH 132 133
ENDBRANCH  97 132
ENDBRANCH  93  97
ENDBRANCH  91  94
ENDBRANCH  87  91
ENDBRANCH  86  88
BRANCH  86 140
ATOM    140  CB  ASP A   7       5.318  10.966  31.607  0.00  0.00    +0.143 C 
BRANCH 140 141
ATOM    141  CG  ASP A   7       4.704   9.610  31.895  0.00  0.00    +0.367 C 
ATOM    142  OD2 ASP A   7       3.466   9.551  32.065  0.00  0.00    -0.246 OA
ATOM    143  OD1 ASP A   7       5.443   8.602  31.930  0.00  0.00    -0.246 OA
ENDBRANCH 140 141
ENDBRANCH  86 140
ENDBRANCH  82  86
ENDBRANCH  81  83
BRANCH  81 144
ATOM    144  CB  LEU A   8       6.619  15.835  31.359  0.00  0.00    +0.029 C 
BRANCH 144 145
ATOM    145  CG  LEU A   8       5.114  15.774  31.119  0.00  0.00    +0.002 C 
ATOM    146  CD2 LEU A   8       4.420  16.948  31.795  0.00  0.00    +0.000 C 
ATOM    147  CD1 LEU A   8       4.810  15.756  29.628  0.00  0.00    +0.000 C 
ENDBRANCH 144 145
ENDBRANCH  81 144
ENDBRANCH  77  81
ENDBRANCH   1  78
BRANCH   1 148
ATOM    148  CB  ILE A   9      11.075  15.414  33.884  0.00  0.00    +0.027 C 
ATOM    149  CG2 ILE A   9      12.549  15.665  34.212  0.00  0.00    +0.002 C 
BRANCH 148 150
ATOM    150  CG1 ILE A   9      10.252  16.699  34.036  0.00  0.00    +0.002 C 
ATOM    151  CD1 ILE A   9      10.296  17.285  35.435  0.00  0.00    +0.000 C 
ENDBRANCH 148 150
ENDBRANCH   1 148
TORSDOF 67
REMARK  Name = ../refined-set-2016/4cwt/4cwt_pocket.pdb
REMARK  231 active torsions:
REMARK  status: ('A' for Active; 'I' for Inactive)
REMARK    1  A    between atoms: _1  and  _3
REMARK    2  A    between atoms: _3  and  _4
REMARK    3  A    between atoms: _3  and  _6
REMARK    4  A    between atoms: _6  and  _7
REMARK    5  A    between atoms: _13  and  _15
REMARK    6  A    between atoms: _15  and  _16
REMARK    7  A    between atoms: _19  and  _21
REMARK    8  A    between atoms: _21  and  _22
REMARK    9  A    between atoms: _21  and  _24
REMARK   10  A    between atoms: _24  and  _25
REMARK   11  A    between atoms: _31  and  _33
REMARK   12  A    between atoms: _33  and  _34
REMARK   13  A    between atoms: _33  and  _36
REMARK   14  A    between atoms: _36  and  _37
REMARK   15  A    between atoms: _37  and  _38
REMARK   16  A    between atoms: _43  and  _45
REMARK   17  A    between atoms: _45  and  _46
REMARK   18  A    between atoms: _45  and  _48
REMARK   19  A    between atoms: _48  and  _49
REMARK   20  A    between atoms: _52  and  _54
REMARK   21  A    between atoms: _54  and  _55
REMARK   22  A    between atoms: _54  and  _57
REMARK   23  A    between atoms: _57  and  _58
REMARK   24  A    between atoms: _61  and  _63
REMARK   25  A    between atoms: _63  and  _64
REMARK   26  A    between atoms: _63  and  _66
REMARK   27  A    between atoms: _66  and  _67
REMARK   28  A    between atoms: _67  and  _68
REMARK   29  A    between atoms: _70  and  _72
REMARK   30  A    between atoms: _72  and  _73
REMARK   31  A    between atoms: _72  and  _75
REMARK   32  A    between atoms: _75  and  _76
REMARK   33  A    between atoms: _76  and  _77
REMARK   34  A    between atoms: _80  and  _82
REMARK   35  A    between atoms: _82  and  _83
REMARK   36  A    between atoms: _82  and  _85
REMARK   37  A    between atoms: _85  and  _86
REMARK   38  A    between atoms: _89  and  _91
REMARK   39  A    between atoms: _91  and  _92
REMARK   40  A    between atoms: _91  and  _94
REMARK   41  A    between atoms: _94  and  _95
REMARK   42  A    between atoms: _97  and  _99
REMARK   43  A    between atoms: _99  and  _100
REMARK   44  A    between atoms: _99  and  _102
REMARK   45  A    between atoms: _102  and  _103
REMARK   46  A    between atoms: _108  and  _110
REMARK   47  A    between atoms: _110  and  _111
REMARK   48  A    between atoms: _110  and  _113
REMARK   49  A    between atoms: _113  and  _114
REMARK   50  A    between atoms: _116  and  _118
REMARK   51  A    between atoms: _118  and  _119
REMARK   52  A    between atoms: _118  and  _121
REMARK   53  A    between atoms: _121  and  _122
REMARK   54  A    between atoms: _125  and  _127
REMARK   55  A    between atoms: _127  and  _128
REMARK   56  A    between atoms: _131  and  _133
REMARK   57  A    between atoms: _133  and  _134
REMARK   58  A    between atoms: _133  and  _136
REMARK   59  A    between atoms: _136  and  _137
REMARK   60  A    between atoms: _137  and  _138
REMARK   61  A    between atoms: _138  and  _139
REMARK   62  A    between atoms: _139  and  _140
REMARK   63  A    between atoms: _144  and  _146
REMARK   64  A    between atoms: _146  and  _147
REMARK   65  A    between atoms: _146  and  _149
REMARK   66  A    between atoms: _149  and  _150
REMARK   67  A    between atoms: _153  and  _155
REMARK   68  A    between atoms: _155  and  _156
REMARK   69  A    between atoms: _158  and  _160
REMARK   70  A    between atoms: _160  and  _161
REMARK   71  A    between atoms: _160  and  _163
REMARK   72  A    between atoms: _163  and  _164
REMARK   73  A    between atoms: _164  and  _165
REMARK   74  A    between atoms: _167  and  _169
REMARK   75  A    between atoms: _169  and  _170
REMARK   76  A    between atoms: _169  and  _172
REMARK   77  A    between atoms: _172  and  _173
REMARK   78  A    between atoms: _176  and  _178
REMARK   79  A    between atoms: _178  and  _179
REMARK   80  A    between atoms: _178  and  _181
REMARK   81  A    between atoms: _181  and  _182
REMARK   82  A    between atoms: _182  and  _183
REMARK   83  A    between atoms: _183  and  _184
REMARK   84  A    between atoms: _184  and  _185
REMARK   85  A    between atoms: _189  and  _191
REMARK   86  A    between atoms: _191  and  _192
REMARK   87  A    between atoms: _195  and  _197
REMARK   88  A    between atoms: _197  and  _198
REMARK   89  A    between atoms: _197  and  _200
REMARK   90  A    between atoms: _200  and  _201
REMARK   91  A    between atoms: _204  and  _206
REMARK   92  A    between atoms: _206  and  _207
REMARK   93  A    between atoms: _206  and  _209
REMARK   94  A    between atoms: _209  and  _210
REMARK   95  A    between atoms: _213  and  _215
REMARK   96  A    between atoms: _215  and  _216
REMARK   97  A    between atoms: _215  and  _218
REMARK   98  A    between atoms: _218  and  _219
REMARK   99  A    between atoms: _222  and  _224
REMARK  100  A    between atoms: _224  and  _225
REMARK  101  A    between atoms: _224  and  _227
REMARK  102  A    between atoms: _227  and  _228
REMARK  103  A    between atoms: _233  and  _235
REMARK  104  A    between atoms: _235  and  _236
REMARK  105  A    between atoms: _235  and  _238
REMARK  106  A    between atoms: _238  and  _239
REMARK  107  A    between atoms: _244  and  _246
REMARK  108  A    between atoms: _246  and  _247
REMARK  109  A    between atoms: _246  and  _249
REMARK  110  A    between atoms: _249  and  _250
REMARK  111  A    between atoms: _253  and  _255
REMARK  112  A    between atoms: _255  and  _256
REMARK  113  A    between atoms: _258  and  _260
REMARK  114  A    between atoms: _260  and  _261
REMARK  115  A    between atoms: _260  and  _263
REMARK  116  A    between atoms: _263  and  _264
REMARK  117  A    between atoms: _267  and  _269
REMARK  118  A    between atoms: _269  and  _270
REMARK  119  A    between atoms: _269  and  _272
REMARK  120  A    between atoms: _272  and  _273
REMARK  121  A    between atoms: _276  and  _278
REMARK  122  A    between atoms: _278  and  _279
REMARK  123  A    between atoms: _282  and  _284
REMARK  124  A    between atoms: _284  and  _285
REMARK  125  A    between atoms: _284  and  _287
REMARK  126  A    between atoms: _287  and  _288
REMARK  127  A    between atoms: _288  and  _289
REMARK  128  A    between atoms: _289  and  _290
REMARK  129  A    between atoms: _290  and  _291
REMARK  130  A    between atoms: _295  and  _297
REMARK  131  A    between atoms: _297  and  _298
REMARK  132  A    between atoms: _300  and  _302
REMARK  133  A    between atoms: _302  and  _303
REMARK  134  A    between atoms: _302  and  _305
REMARK  135  A    between atoms: _305  and  _306
REMARK  136  A    between atoms: _309  and  _311
REMARK  137  A    between atoms: _311  and  _312
REMARK  138  A    between atoms: _311  and  _314
REMARK  139  A    between atoms: _314  and  _315
REMARK  140  A    between atoms: _321  and  _323
REMARK  141  A    between atoms: _323  and  _324
REMARK  142  A    between atoms: _326  and  _328
REMARK  143  A    between atoms: _328  and  _329
REMARK  144  A    between atoms: _328  and  _331
REMARK  145  A    between atoms: _334  and  _336
REMARK  146  A    between atoms: _336  and  _337
REMARK  147  A    between atoms: _339  and  _341
REMARK  148  A    between atoms: _341  and  _342
REMARK  149  A    between atoms: _341  and  _344
REMARK  150  A    between atoms: _344  and  _345
REMARK  151  A    between atoms: _351  and  _353
REMARK  152  A    between atoms: _353  and  _354
REMARK  153  A    between atoms: _353  and  _356
REMARK  154  A    between atoms: _356  and  _357
REMARK  155  A    between atoms: _362  and  _363
REMARK  156  A    between atoms: _365  and  _367
REMARK  157  A    between atoms: _367  and  _368
REMARK  158  A    between atoms: _367  and  _370
REMARK  159  A    between atoms: _370  and  _371
REMARK  160  A    between atoms: _376  and  _377
REMARK  161  A    between atoms: _379  and  _381
REMARK  162  A    between atoms: _381  and  _382
REMARK  163  A    between atoms: _381  and  _384
REMARK  164  A    between atoms: _387  and  _389
REMARK  165  A    between atoms: _389  and  _390
REMARK  166  A    between atoms: _389  and  _392
REMARK  167  A    between atoms: _392  and  _393
REMARK  168  A    between atoms: _396  and  _398
REMARK  169  A    between atoms: _398  and  _399
REMARK  170  A    between atoms: _398  and  _401
REMARK  171  A    between atoms: _404  and  _406
REMARK  172  A    between atoms: _406  and  _407
REMARK  173  A    between atoms: _406  and  _409
REMARK  174  A    between atoms: _409  and  _410
REMARK  175  A    between atoms: _413  and  _415
REMARK  176  A    between atoms: _415  and  _416
REMARK  177  A    between atoms: _415  and  _418
REMARK  178  A    between atoms: _418  and  _419
REMARK  179  A    between atoms: _422  and  _424
REMARK  180  A    between atoms: _424  and  _425
REMARK  181  A    between atoms: _424  and  _427
REMARK  182  A    between atoms: _427  and  _428
REMARK  183  A    between atoms: _433  and  _435
REMARK  184  A    between atoms: _435  and  _436
REMARK  185  A    between atoms: _435  and  _438
REMARK  186  A    between atoms: _438  and  _439
REMARK  187  A    between atoms: _444  and  _445
REMARK  188  A    between atoms: _447  and  _449
REMARK  189  A    between atoms: _449  and  _450
REMARK  190  A    between atoms: _453  and  _455
REMARK  191  A    between atoms: _455  and  _456
REMARK  192  A    between atoms: _455  and  _458
REMARK  193  A    between atoms: _458  and  _459
REMARK  194  A    between atoms: _469  and  _471
REMARK  195  A    between atoms: _471  and  _472
REMARK  196  A    between atoms: _471  and  _474
REMARK  197  A    between atoms: _474  and  _475
REMARK  198  A    between atoms: _475  and  _476
REMARK  199  A    between atoms: _479  and  _481
REMARK  200  A    between atoms: _481  and  _482
REMARK  201  A    between atoms: _481  and  _484
REMARK  202  A    between atoms: _484  and  _485
REMARK  203  A    between atoms: _487  and  _489
REMARK  204  A    between atoms: _489  and  _490
REMARK  205  A    between atoms: _489  and  _492
REMARK  206  A    between atoms: _492  and  _493
REMARK  207  A    between atoms: _499  and  _501
REMARK  208  A    between atoms: _501  and  _502
REMARK  209  A    between atoms: _501  and  _504
REMARK  210  A    between atoms: _504  and  _505
REMARK  211  A    between atoms: _508  and  _510
REMARK  212  A    between atoms: _510  and  _511
REMARK  213  A    between atoms: _510  and  _513
REMARK  214  A    between atoms: _516  and  _518
REMARK  215  A    between atoms: _518  and  _519
REMARK  216  A    between atoms: _518  and  _521
REMARK  217  A    between atoms: _521  and  _522
REMARK  218  A    between atoms: _525  and  _527
REMARK  219  A    between atoms: _527  and  _528
REMARK  220  A    between atoms: _527  and  _530
REMARK  221  A    between atoms: _530  and  _531
REMARK  222  A    between atoms: _531  and  _532
REMARK  223  A    between atoms: _532  and  _533
REMARK  224  A    between atoms: _533  and  _534
REMARK  225  A    between atoms: _538  and  _540
REMARK  226  A    between atoms: _540  and  _541
REMARK  227  A    between atoms: _540  and  _543
REMARK  228  A    between atoms: _546  and  _548
REMARK  229  A    between atoms: _548  and  _549
REMARK  230  A    between atoms: _548  and  _551
REMARK  231  A    between atoms: _551  and  _552
REMARK                            x       y       z     vdW  Elec       q    Type
REMARK                         _______ _______ _______ _____ _____    ______ ____
ROOT
ATOM      1  C   GLY A   1      13.867   6.007  18.194  0.00  0.00    +0.240 C 
ATOM      2  N   THR A   2      14.501   7.128  18.546  0.00  0.00    -0.296 N 
ATOM      3  H   THR A   2      14.534   7.389  19.552  0.00  0.00    +0.150 HD
ATOM      4  O   GLY A   1      13.737   5.643  17.017  0.00  0.00    -0.274 OA
ENDROOT
BRANCH   1   5
ATOM      5  CA  GLY A   1      13.285   5.186  19.333  0.00  0.00    +0.169 C 
BRANCH   5   6
ATOM      6  N   GLY A   1      14.187   5.144  20.483  0.00  0.00    -0.236 NA
ATOM      7  H   GLY A   1      13.902   5.607  21.370  0.00  0.00    +0.142 HD
ENDBRANCH   5   6
ENDBRANCH   1   5
BRANCH   2   8
ATOM      8  CA  THR A   2      15.151   8.002  17.571  0.00  0.00    +0.164 C 
BRANCH   8   9
ATOM      9  CB  THR A   2      15.695   9.293  18.230  0.00  0.00    +0.136 C 
ATOM     10  CG2 THR A   2      16.503  10.117  17.234  0.00  0.00    +0.034 C 
BRANCH   9  11
ATOM     11  OG1 THR A   2      14.591  10.092  18.672  0.00  0.00    -0.382 OA
ATOM     12  HG1 THR A   2      14.057   9.580  19.330  0.00  0.00    +0.210 HD
ENDBRANCH   9  11
ENDBRANCH   8   9
BRANCH   8  13
ATOM     13  C   THR A   2      16.286   7.264  16.864  0.00  0.00    +0.229 C 
ATOM     14  O   THR A   2      16.410   7.351  15.632  0.00  0.00    -0.286 OA
ENDBRANCH   8  13
ENDBRANCH   2   8
TORSDOF 6
REMARK  Name = ../refined-set-2016/4cwt/4cwt_pocket.pdb
REMARK  231 active torsions:
REMARK  status: ('A' for Active; 'I' for Inactive)
REMARK    1  A    between atoms: _1  and  _3
REMARK    2  A    between atoms: _3  and  _4
REMARK    3  A    between atoms: _3  and  _6
REMARK    4  A    between atoms: _6  and  _7
REMARK    5  A    between atoms: _13  and  _15
REMARK    6  A    between atoms: _15  and  _16
REMARK    7  A    between atoms: _19  and  _21
REMARK    8  A    between atoms: _21  and  _22
REMARK    9  A    between atoms: _21  and  _24
REMARK   10  A    between atoms: _24  and  _25
REMARK   11  A    between atoms: _31  and  _33
REMARK   12  A    between atoms: _33  and  _34
REMARK   13  A    between atoms: _33  and  _36
REMARK   14  A    between atoms: _36  and  _37
REMARK   15  A    between atoms: _37  and  _38
REMARK   16  A    between atoms: _43  and  _45
REMARK   17  A    between atoms: _45  and  _46
REMARK   18  A    between atoms: _45  and  _48
REMARK   19  A    between atoms: _48  and  _49
REMARK   20  A    between atoms: _52  and  _54
REMARK   21  A    between atoms: _54  and  _55
REMARK   22  A    between atoms: _54  and  _57
REMARK   23  A    between atoms: _57  and  _58
REMARK   24  A    between atoms: _61  and  _63
REMARK   25  A    between atoms: _63  and  _64
REMARK   26  A    between atoms: _63  and  _66
REMARK   27  A    between atoms: _66  and  _67
REMARK   28  A    between atoms: _67  and  _68
REMARK   29  A    between atoms: _70  and  _72
REMARK   30  A    between atoms: _72  and  _73
REMARK   31  A    between atoms: _72  and  _75
REMARK   32  A    between atoms: _75  and  _76
REMARK   33  A    between atoms: _76  and  _77
REMARK   34  A    between atoms: _80  and  _82
REMARK   35  A    between atoms: _82  and  _83
REMARK   36  A    between atoms: _82  and  _85
REMARK   37  A    between atoms: _85  and  _86
REMARK   38  A    between atoms: _89  and  _91
REMARK   39  A    between atoms: _91  and  _92
REMARK   40  A    between atoms: _91  and  _94
REMARK   41  A    between atoms: _94  and  _95
REMARK   42  A    between atoms: _97  and  _99
REMARK   43  A    between atoms: _99  and  _100
REMARK   44  A    between atoms: _99  and  _102
REMARK   45  A    between atoms: _102  and  _103
REMARK   46  A    between atoms: _108  and  _110
REMARK   47  A    between atoms: _110  and  _111
REMARK   48  A    between atoms: _110  and  _113
REMARK   49  A    between atoms: _113  and  _114
REMARK   50  A    between atoms: _116  and  _118
REMARK   51  A    between atoms: _118  and  _119
REMARK   52  A    between atoms: _118  and  _121
REMARK   53  A    between atoms: _121  and  _122
REMARK   54  A    between atoms: _125  and  _127
REMARK   55  A    between atoms: _127  and  _128
REMARK   56  A    between atoms: _131  and  _133
REMARK   57  A    between atoms: _133  and  _134
REMARK   58  A    between atoms: _133  and  _136
REMARK   59  A    between atoms: _136  and  _137
REMARK   60  A    between atoms: _137  and  _138
REMARK   61  A    between atoms: _138  and  _139
REMARK   62  A    between atoms: _139  and  _140
REMARK   63  A    between atoms: _144  and  _146
REMARK   64  A    between atoms: _146  and  _147
REMARK   65  A    between atoms: _146  and  _149
REMARK   66  A    between atoms: _149  and  _150
REMARK   67  A    between atoms: _153  and  _155
REMARK   68  A    between atoms: _155  and  _156
REMARK   69  A    between atoms: _158  and  _160
REMARK   70  A    between atoms: _160  and  _161
REMARK   71  A    between atoms: _160  and  _163
REMARK   72  A    between atoms: _163  and  _164
REMARK   73  A    between atoms: _164  and  _165
REMARK   74  A    between atoms: _167  and  _169
REMARK   75  A    between atoms: _169  and  _170
REMARK   76  A    between atoms: _169  and  _172
REMARK   77  A    between atoms: _172  and  _173
REMARK   78  A    between atoms: _176  and  _178
REMARK   79  A    between atoms: _178  and  _179
REMARK   80  A    between atoms: _178  and  _181
REMARK   81  A    between atoms: _181  and  _182
REMARK   82  A    between atoms: _182  and  _183
REMARK   83  A    between atoms: _183  and  _184
REMARK   84  A    between atoms: _184  and  _185
REMARK   85  A    between atoms: _189  and  _191
REMARK   86  A    between atoms: _191  and  _192
REMARK   87  A    between atoms: _195  and  _197
REMARK   88  A    between atoms: _197  and  _198
REMARK   89  A    between atoms: _197  and  _200
REMARK   90  A    between atoms: _200  and  _201
REMARK   91  A    between atoms: _204  and  _206
REMARK   92  A    between atoms: _206  and  _207
REMARK   93  A    between atoms: _206  and  _209
REMARK   94  A    between atoms: _209  and  _210
REMARK   95  A    between atoms: _213  and  _215
REMARK   96  A    between atoms: _215  and  _216
REMARK   97  A    between atoms: _215  and  _218
REMARK   98  A    between atoms: _218  and  _219
REMARK   99  A    between atoms: _222  and  _224
REMARK  100  A    between atoms: _224  and  _225
REMARK  101  A    between atoms: _224  and  _227
REMARK  102  A    between atoms: _227  and  _228
REMARK  103  A    between atoms: _233  and  _235
REMARK  104  A    between atoms: _235  and  _236
REMARK  105  A    between atoms: _235  and  _238
REMARK  106  A    between atoms: _238  and  _239
REMARK  107  A    between atoms: _244  and  _246
REMARK  108  A    between atoms: _246  and  _247
REMARK  109  A    between atoms: _246  and  _249
REMARK  110  A    between atoms: _249  and  _250
REMARK  111  A    between atoms: _253  and  _255
REMARK  112  A    between atoms: _255  and  _256
REMARK  113  A    between atoms: _258  and  _260
REMARK  114  A    between atoms: _260  and  _261
REMARK  115  A    between atoms: _260  and  _263
REMARK  116  A    between atoms: _263  and  _264
REMARK  117  A    between atoms: _267  and  _269
REMARK  118  A    between atoms: _269  and  _270
REMARK  119  A    between atoms: _269  and  _272
REMARK  120  A    between atoms: _272  and  _273
REMARK  121  A    between atoms: _276  and  _278
REMARK  122  A    between atoms: _278  and  _279
REMARK  123  A    between atoms: _282  and  _284
REMARK  124  A    between atoms: _284  and  _285
REMARK  125  A    between atoms: _284  and  _287
REMARK  126  A    between atoms: _287  and  _288
REMARK  127  A    between atoms: _288  and  _289
REMARK  128  A    between atoms: _289  and  _290
REMARK  129  A    between atoms: _290  and  _291
REMARK  130  A    between atoms: _295  and  _297
REMARK  131  A    between atoms: _297  and  _298
REMARK  132  A    between atoms: _300  and  _302
REMARK  133  A    between atoms: _302  and  _303
REMARK  134  A    between atoms: _302  and  _305
REMARK  135  A    between atoms: _305  and  _306
REMARK  136  A    between atoms: _309  and  _311
REMARK  137  A    between atoms: _311  and  _312
REMARK  138  A    between atoms: _311  and  _314
REMARK  139  A    between atoms: _314  and  _315
REMARK  140  A    between atoms: _321  and  _323
REMARK  141  A    between atoms: _323  and  _324
REMARK  142  A    between atoms: _326  and  _328
REMARK  143  A    between atoms: _328  and  _329
REMARK  144  A    between atoms: _328  and  _331
REMARK  145  A    between atoms: _334  and  _336
REMARK  146  A    between atoms: _336  and  _337
REMARK  147  A    between atoms: _339  and  _341
REMARK  148  A    between atoms: _341  and  _342
REMARK  149  A    between atoms: _341  and  _344
REMARK  150  A    between atoms: _344  and  _345
REMARK  151  A    between atoms: _351  and  _353
REMARK  152  A    between atoms: _353  and  _354
REMARK  153  A    between atoms: _353  and  _356
REMARK  154  A    between atoms: _356  and  _357
REMARK  155  A    between atoms: _362  and  _363
REMARK  156  A    between atoms: _365  and  _367
REMARK  157  A    between atoms: _367  and  _368
REMARK  158  A    between atoms: _367  and  _370
REMARK  159  A    between atoms: _370  and  _371
REMARK  160  A    between atoms: _376  and  _377
REMARK  161  A    between atoms: _379  and  _381
REMARK  162  A    between atoms: _381  and  _382
REMARK  163  A    between atoms: _381  and  _384
REMARK  164  A    between atoms: _387  and  _389
REMARK  165  A    between atoms: _389  and  _390
REMARK  166  A    between atoms: _389  and  _392
REMARK  167  A    between atoms: _392  and  _393
REMARK  168  A    between atoms: _396  and  _398
REMARK  169  A    between atoms: _398  and  _399
REMARK  170  A    between atoms: _398  and  _401
REMARK  171  A    between atoms: _404  and  _406
REMARK  172  A    between atoms: _406  and  _407
REMARK  173  A    between atoms: _406  and  _409
REMARK  174  A    between atoms: _409  and  _410
REMARK  175  A    between atoms: _413  and  _415
REMARK  176  A    between atoms: _415  and  _416
REMARK  177  A    between atoms: _415  and  _418
REMARK  178  A    between atoms: _418  and  _419
REMARK  179  A    between atoms: _422  and  _424
REMARK  180  A    between atoms: _424  and  _425
REMARK  181  A    between atoms: _424  and  _427
REMARK  182  A    between atoms: _427  and  _428
REMARK  183  A    between atoms: _433  and  _435
REMARK  184  A    between atoms: _435  and  _436
REMARK  185  A    between atoms: _435  and  _438
REMARK  186  A    between atoms: _438  and  _439
REMARK  187  A    between atoms: _444  and  _445
REMARK  188  A    between atoms: _447  and  _449
REMARK  189  A    between atoms: _449  and  _450
REMARK  190  A    between atoms: _453  and  _455
REMARK  191  A    between atoms: _455  and  _456
REMARK  192  A    between atoms: _455  and  _458
REMARK  193  A    between atoms: _458  and  _459
REMARK  194  A    between atoms: _469  and  _471
REMARK  195  A    between atoms: _471  and  _472
REMARK  196  A    between atoms: _471  and  _474
REMARK  197  A    between atoms: _474  and  _475
REMARK  198  A    between atoms: _475  and  _476
REMARK  199  A    between atoms: _479  and  _481
REMARK  200  A    between atoms: _481  and  _482
REMARK  201  A    between atoms: _481  and  _484
REMARK  202  A    between atoms: _484  and  _485
REMARK  203  A    between atoms: _487  and  _489
REMARK  204  A    between atoms: _489  and  _490
REMARK  205  A    between atoms: _489  and  _492
REMARK  206  A    between atoms: _492  and  _493
REMARK  207  A    between atoms: _499  and  _501
REMARK  208  A    between atoms: _501  and  _502
REMARK  209  A    between atoms: _501  and  _504
REMARK  210  A    between atoms: _504  and  _505
REMARK  211  A    between atoms: _508  and  _510
REMARK  212  A    between atoms: _510  and  _511
REMARK  213  A    between atoms: _510  and  _513
REMARK  214  A    between atoms: _516  and  _518
REMARK  215  A    between atoms: _518  and  _519
REMARK  216  A    between atoms: _518  and  _521
REMARK  217  A    between atoms: _521  and  _522
REMARK  218  A    between atoms: _525  and  _527
REMARK  219  A    between atoms: _527  and  _528
REMARK  220  A    between atoms: _527  and  _530
REMARK  221  A    between atoms: _530  and  _531
REMARK  222  A    between atoms: _531  and  _532
REMARK  223  A    between atoms: _532  and  _533
REMARK  224  A    between atoms: _533  and  _534
REMARK  225  A    between atoms: _538  and  _540
REMARK  226  A    between atoms: _540  and  _541
REMARK  227  A    between atoms: _540  and  _543
REMARK  228  A    between atoms: _546  and  _548
REMARK  229  A    between atoms: _548  and  _549
REMARK  230  A    between atoms: _548  and  _551
REMARK  231  A    between atoms: _551  and  _552
REMARK                            x       y       z     vdW  Elec       q    Type
REMARK                         _______ _______ _______ _____ _____    ______ ____
ROOT
ATOM      1  CA  GLY A   4       5.207   9.895  16.497  0.00  0.00    +0.176 C 
ENDROOT
BRANCH   1   3
ATOM      2  C   VAL A   3       7.330   9.803  17.706  0.00  0.00    +0.241 C 
ATOM      3  N   GLY A   4       6.180   9.223  17.355  0.00  0.00    -0.295 N 
ATOM      4  H   GLY A   4       5.971   8.265  17.702  0.00  0.00    +0.150 HD
ATOM      5  O   VAL A   3       7.655  10.925  17.323  0.00  0.00    -0.273 OA
BRANCH   2   6
ATOM      6  CA  VAL A   3       8.258   9.013  18.633  0.00  0.00    +0.149 C 
BRANCH   6   9
ATOM      7  C   GLY A   2       7.682   6.892  19.670  0.00  0.00    +0.243 C 
ATOM      8  O   GLY A   2       7.574   7.404  20.786  0.00  0.00    -0.273 OA
ATOM      9  N   VAL A   3       8.030   7.578  18.587  0.00  0.00    -0.297 N 
ATOM     10  H   VAL A   3       8.142   7.076  17.683  0.00  0.00    +0.150 HD
BRANCH   7  11
ATOM     11  CA  GLY A   2       7.408   5.419  19.462  0.00  0.00    +0.176 C 
BRANCH  11  14
ATOM     12  C   PHE A   1       9.172   4.776  17.878  0.00  0.00    +0.239 C 
ATOM     13  O   PHE A   1      10.093   5.213  18.581  0.00  0.00    -0.274 OA
ATOM     14  N   GLY A   2       7.880   4.886  18.197  0.00  0.00    -0.296 N 
ATOM     15  H   GLY A   2       7.173   4.573  17.501  0.00  0.00    +0.150 HD
BRANCH  12  16
ATOM     16  CA  PHE A   1       9.465   4.066  16.548  0.00  0.00    +0.149 C 
BRANCH  16  17
ATOM     17  N   PHE A   1       8.280   4.013  15.694  0.00  0.00    -0.238 NA
ATOM     18  H   PHE A   1       7.840   4.903  15.384  0.00  0.00    +0.142 HD
ENDBRANCH  16  17
BRANCH  16  19
ATOM     19  CB  PHE A   1      10.646   4.682  15.765  0.00  0.00    +0.053 C 
BRANCH  19  20
ATOM     20  CG  PHE A   1      10.925   3.960  14.461  0.00  0.00    -0.020 A 
ATOM     21  CD2 PHE A   1      11.699   2.795  14.445  0.00  0.00    -0.004 A 
ATOM     22  CE2 PHE A   1      11.929   2.108  13.250  0.00  0.00    -0.000 A 
ATOM     23  CZ  PHE A   1      11.373   2.574  12.065  0.00  0.00    -0.000 A 
ATOM     24  CE1 PHE A   1      10.594   3.731  12.063  0.00  0.00    -0.000 A 
ATOM     25  CD1 PHE A   1      10.368   4.411  13.262  0.00  0.00    -0.004 A 
ENDBRANCH  19  20
ENDBRANCH  16  19
ENDBRANCH  12  16
ENDBRANCH  11  14
ENDBRANCH   7  11
ENDBRANCH   6   9
BRANCH   6  26
ATOM     26  CB  VAL A   3       9.738   9.342  18.317  0.00  0.00    +0.027 C 
ATOM     27  CG2 VAL A   3      10.623   8.971  19.491  0.00  0.00    +0.002 C 
ATOM     28  CG1 VAL A   3      10.198   8.635  17.055  0.00  0.00    +0.002 C 
ENDBRANCH   6  26
ENDBRANCH   2   6
ENDBRANCH   1   3
BRANCH   1  29
ATOM     29  C   GLY A   4       4.734  11.263  16.984  0.00  0.00    +0.243 C 
ATOM     30  N   PHE A   5       4.739  11.472  18.295  0.00  0.00    -0.297 N 
ATOM     31  H   PHE A   5       4.960  10.676  18.927  0.00  0.00    +0.150 HD
ATOM     32  O   GLY A   4       4.384  12.116  16.174  0.00  0.00    -0.273 OA
BRANCH  30  33
ATOM     33  CA  PHE A   5       4.443  12.793  18.891  0.00  0.00    +0.153 C 
BRANCH  33  34
ATOM     34  C   PHE A   5       5.199  13.918  18.195  0.00  0.00    +0.241 C 
ATOM     35  N   TYR A   6       6.479  13.689  17.914  0.00  0.00    -0.298 N 
ATOM     36  H   TYR A   6       6.880  12.749  18.107  0.00  0.00    +0.150 HD
ATOM     37  O   PHE A   5       4.635  14.969  17.906  0.00  0.00    -0.273 OA
BRANCH  35  38
ATOM     38  CA  TYR A   6       7.338  14.730  17.339  0.00  0.00    +0.141 C 
BRANCH  38  39
ATOM     39  C   TYR A   6       7.014  15.107  15.901  0.00  0.00    +0.227 C 
ATOM     40  O   TYR A   6       7.474  16.147  15.417  0.00  0.00    -0.286 OA
ENDBRANCH  38  39
BRANCH  38  41
ATOM     41  CB  TYR A   6       8.799  14.323  17.475  0.00  0.00    +0.054 C 
BRANCH  41  42
ATOM     42  CG  TYR A   6       9.242  14.375  18.904  0.00  0.00    -0.020 A 
ATOM     43  CD2 TYR A   6       9.316  13.223  19.672  0.00  0.00    -0.001 A 
ATOM     44  CE2 TYR A   6       9.707  13.272  21.011  0.00  0.00    +0.036 A 
ATOM     45  CZ  TYR A   6      10.030  14.499  21.566  0.00  0.00    +0.134 A 
ATOM     46  CE1 TYR A   6       9.941  15.661  20.823  0.00  0.00    +0.036 A 
ATOM     47  CD1 TYR A   6       9.551  15.595  19.498  0.00  0.00    -0.001 A 
BRANCH  45  48
ATOM     48  OH  TYR A   6      10.433  14.575  22.869  0.00  0.00    -0.506 OA
ATOM     49  HH  TYR A   6       9.715  14.228  23.456  0.00  0.00    +0.292 HD
ENDBRANCH  45  48
ENDBRANCH  41  42
ENDBRANCH  38  41
ENDBRANCH  35  38
ENDBRANCH  33  34
BRANCH  33  50
ATOM     50  CB  PHE A   5       4.774  12.800  20.394  0.00  0.00    +0.055 C 
BRANCH  50  51
ATOM     51  CG  PHE A   5       4.718  14.175  21.020  0.00  0.00    -0.020 A 
ATOM     52  CD2 PHE A   5       5.889  14.858  21.351  0.00  0.00    -0.004 A 
ATOM     53  CE2 PHE A   5       5.826  16.125  21.937  0.00  0.00    -0.000 A 
ATOM     54  CZ  PHE A   5       4.599  16.722  22.163  0.00  0.00    -0.000 A 
ATOM     55  CE1 PHE A   5       3.437  16.056  21.811  0.00  0.00    -0.000 A 
ATOM     56  CD1 PHE A   5       3.508  14.781  21.257  0.00  0.00    -0.004 A 
ENDBRANCH  50  51
ENDBRANCH  33  50
ENDBRANCH  30  33
ENDBRANCH   1  29
TORSDOF 20
REMARK  Name = ../refined-set-2016/4cwt/4cwt_pocket.pdb
REMARK  231 active torsions:
REMARK  status: ('A' for Active; 'I' for Inactive)
REMARK    1  A    between atoms: _1  and  _3
REMARK    2  A    between atoms: _3  and  _4
REMARK    3  A    between atoms: _3  and  _6
REMARK    4  A    between atoms: _6  and  _7
REMARK    5  A    between atoms: _13  and  _15
REMARK    6  A    between atoms: _15  and  _16
REMARK    7  A    between atoms: _19  and  _21
REMARK    8  A    between atoms: _21  and  _22
REMARK    9  A    between atoms: _21  and  _24
REMARK   10  A    between atoms: _24  and  _25
REMARK   11  A    between atoms: _31  and  _33
REMARK   12  A    between atoms: _33  and  _34
REMARK   13  A    between atoms: _33  and  _36
REMARK   14  A    between atoms: _36  and  _37
REMARK   15  A    between atoms: _37  and  _38
REMARK   16  A    between atoms: _43  and  _45
REMARK   17  A    between atoms: _45  and  _46
REMARK   18  A    between atoms: _45  and  _48
REMARK   19  A    between atoms: _48  and  _49
REMARK   20  A    between atoms: _52  and  _54
REMARK   21  A    between atoms: _54  and  _55
REMARK   22  A    between atoms: _54  and  _57
REMARK   23  A    between atoms: _57  and  _58
REMARK   24  A    between atoms: _61  and  _63
REMARK   25  A    between atoms: _63  and  _64
REMARK   26  A    between atoms: _63  and  _66
REMARK   27  A    between atoms: _66  and  _67
REMARK   28  A    between atoms: _67  and  _68
REMARK   29  A    between atoms: _70  and  _72
REMARK   30  A    between atoms: _72  and  _73
REMARK   31  A    between atoms: _72  and  _75
REMARK   32  A    between atoms: _75  and  _76
REMARK   33  A    between atoms: _76  and  _77
REMARK   34  A    between atoms: _80  and  _82
REMARK   35  A    between atoms: _82  and  _83
REMARK   36  A    between atoms: _82  and  _85
REMARK   37  A    between atoms: _85  and  _86
REMARK   38  A    between atoms: _89  and  _91
REMARK   39  A    between atoms: _91  and  _92
REMARK   40  A    between atoms: _91  and  _94
REMARK   41  A    between atoms: _94  and  _95
REMARK   42  A    between atoms: _97  and  _99
REMARK   43  A    between atoms: _99  and  _100
REMARK   44  A    between atoms: _99  and  _102
REMARK   45  A    between atoms: _102  and  _103
REMARK   46  A    between atoms: _108  and  _110
REMARK   47  A    between atoms: _110  and  _111
REMARK   48  A    between atoms: _110  and  _113
REMARK   49  A    between atoms: _113  and  _114
REMARK   50  A    between atoms: _116  and  _118
REMARK   51  A    between atoms: _118  and  _119
REMARK   52  A    between atoms: _118  and  _121
REMARK   53  A    between atoms: _121  and  _122
REMARK   54  A    between atoms: _125  and  _127
REMARK   55  A    between atoms: _127  and  _128
REMARK   56  A    between atoms: _131  and  _133
REMARK   57  A    between atoms: _133  and  _134
REMARK   58  A    between atoms: _133  and  _136
REMARK   59  A    between atoms: _136  and  _137
REMARK   60  A    between atoms: _137  and  _138
REMARK   61  A    between atoms: _138  and  _139
REMARK   62  A    between atoms: _139  and  _140
REMARK   63  A    between atoms: _144  and  _146
REMARK   64  A    between atoms: _146  and  _147
REMARK   65  A    between atoms: _146  and  _149
REMARK   66  A    between atoms: _149  and  _150
REMARK   67  A    between atoms: _153  and  _155
REMARK   68  A    between atoms: _155  and  _156
REMARK   69  A    between atoms: _158  and  _160
REMARK   70  A    between atoms: _160  and  _161
REMARK   71  A    between atoms: _160  and  _163
REMARK   72  A    between atoms: _163  and  _164
REMARK   73  A    between atoms: _164  and  _165
REMARK   74  A    between atoms: _167  and  _169
REMARK   75  A    between atoms: _169  and  _170
REMARK   76  A    between atoms: _169  and  _172
REMARK   77  A    between atoms: _172  and  _173
REMARK   78  A    between atoms: _176  and  _178
REMARK   79  A    between atoms: _178  and  _179
REMARK   80  A    between atoms: _178  and  _181
REMARK   81  A    between atoms: _181  and  _182
REMARK   82  A    between atoms: _182  and  _183
REMARK   83  A    between atoms: _183  and  _184
REMARK   84  A    between atoms: _184  and  _185
REMARK   85  A    between atoms: _189  and  _191
REMARK   86  A    between atoms: _191  and  _192
REMARK   87  A    between atoms: _195  and  _197
REMARK   88  A    between atoms: _197  and  _198
REMARK   89  A    between atoms: _197  and  _200
REMARK   90  A    between atoms: _200  and  _201
REMARK   91  A    between atoms: _204  and  _206
REMARK   92  A    between atoms: _206  and  _207
REMARK   93  A    between atoms: _206  and  _209
REMARK   94  A    between atoms: _209  and  _210
REMARK   95  A    between atoms: _213  and  _215
REMARK   96  A    between atoms: _215  and  _216
REMARK   97  A    between atoms: _215  and  _218
REMARK   98  A    between atoms: _218  and  _219
REMARK   99  A    between atoms: _222  and  _224
REMARK  100  A    between atoms: _224  and  _225
REMARK  101  A    between atoms: _224  and  _227
REMARK  102  A    between atoms: _227  and  _228
REMARK  103  A    between atoms: _233  and  _235
REMARK  104  A    between atoms: _235  and  _236
REMARK  105  A    between atoms: _235  and  _238
REMARK  106  A    between atoms: _238  and  _239
REMARK  107  A    between atoms: _244  and  _246
REMARK  108  A    between atoms: _246  and  _247
REMARK  109  A    between atoms: _246  and  _249
REMARK  110  A    between atoms: _249  and  _250
REMARK  111  A    between atoms: _253  and  _255
REMARK  112  A    between atoms: _255  and  _256
REMARK  113  A    between atoms: _258  and  _260
REMARK  114  A    between atoms: _260  and  _261
REMARK  115  A    between atoms: _260  and  _263
REMARK  116  A    between atoms: _263  and  _264
REMARK  117  A    between atoms: _267  and  _269
REMARK  118  A    between atoms: _269  and  _270
REMARK  119  A    between atoms: _269  and  _272
REMARK  120  A    between atoms: _272  and  _273
REMARK  121  A    between atoms: _276  and  _278
REMARK  122  A    between atoms: _278  and  _279
REMARK  123  A    between atoms: _282  and  _284
REMARK  124  A    between atoms: _284  and  _285
REMARK  125  A    between atoms: _284  and  _287
REMARK  126  A    between atoms: _287  and  _288
REMARK  127  A    between atoms: _288  and  _289
REMARK  128  A    between atoms: _289  and  _290
REMARK  129  A    between atoms: _290  and  _291
REMARK  130  A    between atoms: _295  and  _297
REMARK  131  A    between atoms: _297  and  _298
REMARK  132  A    between atoms: _300  and  _302
REMARK  133  A    between atoms: _302  and  _303
REMARK  134  A    between atoms: _302  and  _305
REMARK  135  A    between atoms: _305  and  _306
REMARK  136  A    between atoms: _309  and  _311
REMARK  137  A    between atoms: _311  and  _312
REMARK  138  A    between atoms: _311  and  _314
REMARK  139  A    between atoms: _314  and  _315
REMARK  140  A    between atoms: _321  and  _323
REMARK  141  A    between atoms: _323  and  _324
REMARK  142  A    between atoms: _326  and  _328
REMARK  143  A    between atoms: _328  and  _329
REMARK  144  A    between atoms: _328  and  _331
REMARK  145  A    between atoms: _334  and  _336
REMARK  146  A    between atoms: _336  and  _337
REMARK  147  A    between atoms: _339  and  _341
REMARK  148  A    between atoms: _341  and  _342
REMARK  149  A    between atoms: _341  and  _344
REMARK  150  A    between atoms: _344  and  _345
REMARK  151  A    between atoms: _351  and  _353
REMARK  152  A    between atoms: _353  and  _354
REMARK  153  A    between atoms: _353  and  _356
REMARK  154  A    between atoms: _356  and  _357
REMARK  155  A    between atoms: _362  and  _363
REMARK  156  A    between atoms: _365  and  _367
REMARK  157  A    between atoms: _367  and  _368
REMARK  158  A    between atoms: _367  and  _370
REMARK  159  A    between atoms: _370  and  _371
REMARK  160  A    between atoms: _376  and  _377
REMARK  161  A    between atoms: _379  and  _381
REMARK  162  A    between atoms: _381  and  _382
REMARK  163  A    between atoms: _381  and  _384
REMARK  164  A    between atoms: _387  and  _389
REMARK  165  A    between atoms: _389  and  _390
REMARK  166  A    between atoms: _389  and  _392
REMARK  167  A    between atoms: _392  and  _393
REMARK  168  A    between atoms: _396  and  _398
REMARK  169  A    between atoms: _398  and  _399
REMARK  170  A    between atoms: _398  and  _401
REMARK  171  A    between atoms: _404  and  _406
REMARK  172  A    between atoms: _406  and  _407
REMARK  173  A    between atoms: _406  and  _409
REMARK  174  A    between atoms: _409  and  _410
REMARK  175  A    between atoms: _413  and  _415
REMARK  176  A    between atoms: _415  and  _416
REMARK  177  A    between atoms: _415  and  _418
REMARK  178  A    between atoms: _418  and  _419
REMARK  179  A    between atoms: _422  and  _424
REMARK  180  A    between atoms: _424  and  _425
REMARK  181  A    between atoms: _424  and  _427
REMARK  182  A    between atoms: _427  and  _428
REMARK  183  A    between atoms: _433  and  _435
REMARK  184  A    between atoms: _435  and  _436
REMARK  185  A    between atoms: _435  and  _438
REMARK  186  A    between atoms: _438  and  _439
REMARK  187  A    between atoms: _444  and  _445
REMARK  188  A    between atoms: _447  and  _449
REMARK  189  A    between atoms: _449  and  _450
REMARK  190  A    between atoms: _453  and  _455
REMARK  191  A    between atoms: _455  and  _456
REMARK  192  A    between atoms: _455  and  _458
REMARK  193  A    between atoms: _458  and  _459
REMARK  194  A    between atoms: _469  and  _471
REMARK  195  A    between atoms: _471  and  _472
REMARK  196  A    between atoms: _471  and  _474
REMARK  197  A    between atoms: _474  and  _475
REMARK  198  A    between atoms: _475  and  _476
REMARK  199  A    between atoms: _479  and  _481
REMARK  200  A    between atoms: _481  and  _482
REMARK  201  A    between atoms: _481  and  _484
REMARK  202  A    between atoms: _484  and  _485
REMARK  203  A    between atoms: _487  and  _489
REMARK  204  A    between atoms: _489  and  _490
REMARK  205  A    between atoms: _489  and  _492
REMARK  206  A    between atoms: _492  and  _493
REMARK  207  A    between atoms: _499  and  _501
REMARK  208  A    between atoms: _501  and  _502
REMARK  209  A    between atoms: _501  and  _504
REMARK  210  A    between atoms: _504  and  _505
REMARK  211  A    between atoms: _508  and  _510
REMARK  212  A    between atoms: _510  and  _511
REMARK  213  A    between atoms: _510  and  _513
REMARK  214  A    between atoms: _516  and  _518
REMARK  215  A    between atoms: _518  and  _519
REMARK  216  A    between atoms: _518  and  _521
REMARK  217  A    between atoms: _521  and  _522
REMARK  218  A    between atoms: _525  and  _527
REMARK  219  A    between atoms: _527  and  _528
REMARK  220  A    between atoms: _527  and  _530
REMARK  221  A    between atoms: _530  and  _531
REMARK  222  A    between atoms: _531  and  _532
REMARK  223  A    between atoms: _532  and  _533
REMARK  224  A    between atoms: _533  and  _534
REMARK  225  A    between atoms: _538  and  _540
REMARK  226  A    between atoms: _540  and  _541
REMARK  227  A    between atoms: _540  and  _543
REMARK  228  A    between atoms: _546  and  _548
REMARK  229  A    between atoms: _548  and  _549
REMARK  230  A    between atoms: _548  and  _551
REMARK  231  A    between atoms: _551  and  _552
REMARK                            x       y       z     vdW  Elec       q    Type
REMARK                         _______ _______ _______ _____ _____    ______ ____
ROOT
ATOM      1  CG  TYR A   1       8.020  20.010  16.526  0.00  0.00    -0.020 A 
ATOM      2  CD2 TYR A   1       7.727  19.009  17.458  0.00  0.00    -0.001 A 
ATOM      3  CE2 TYR A   1       7.538  19.310  18.806  0.00  0.00    +0.036 A 
ATOM      4  CZ  TYR A   1       7.652  20.635  19.236  0.00  0.00    +0.134 A 
ATOM      5  CE1 TYR A   1       7.940  21.638  18.330  0.00  0.00    +0.036 A 
ATOM      6  CD1 TYR A   1       8.125  21.323  16.980  0.00  0.00    -0.001 A 
ENDROOT
BRANCH   4   7
ATOM      7  OH  TYR A   1       7.466  20.954  20.567  0.00  0.00    -0.506 OA
ATOM      8  HH  TYR A   1       6.708  21.585  20.651  0.00  0.00    +0.292 HD
ENDBRANCH   4   7
BRANCH   1   9
ATOM      9  CB  TYR A   1       8.179  19.686  15.054  0.00  0.00    +0.051 C 
BRANCH   9  10
ATOM     10  CA  TYR A   1       6.809  19.721  14.362  0.00  0.00    +0.137 C 
BRANCH  10  11
ATOM     11  N   TYR A   1       5.931  18.628  14.837  0.00  0.00    -0.239 NA
ATOM     12  H   TYR A   1       6.349  17.735  15.168  0.00  0.00    +0.142 HD
ENDBRANCH  10  11
BRANCH  10  13
ATOM     13  C   TYR A   1       6.906  19.856  12.839  0.00  0.00    +0.224 C 
ATOM     14  O   TYR A   1       7.566  20.776  12.315  0.00  0.00    -0.287 OA
ENDBRANCH  10  13
ENDBRANCH   9  10
ENDBRANCH   1   9
TORSDOF 5
REMARK  Name = ../refined-set-2016/4cwt/4cwt_pocket.pdb
REMARK  231 active torsions:
REMARK  status: ('A' for Active; 'I' for Inactive)
REMARK    1  A    between atoms: _1  and  _3
REMARK    2  A    between atoms: _3  and  _4
REMARK    3  A    between atoms: _3  and  _6
REMARK    4  A    between atoms: _6  and  _7
REMARK    5  A    between atoms: _13  and  _15
REMARK    6  A    between atoms: _15  and  _16
REMARK    7  A    between atoms: _19  and  _21
REMARK    8  A    between atoms: _21  and  _22
REMARK    9  A    between atoms: _21  and  _24
REMARK   10  A    between atoms: _24  and  _25
REMARK   11  A    between atoms: _31  and  _33
REMARK   12  A    between atoms: _33  and  _34
REMARK   13  A    between atoms: _33  and  _36
REMARK   14  A    between atoms: _36  and  _37
REMARK   15  A    between atoms: _37  and  _38
REMARK   16  A    between atoms: _43  and  _45
REMARK   17  A    between atoms: _45  and  _46
REMARK   18  A    between atoms: _45  and  _48
REMARK   19  A    between atoms: _48  and  _49
REMARK   20  A    between atoms: _52  and  _54
REMARK   21  A    between atoms: _54  and  _55
REMARK   22  A    between atoms: _54  and  _57
REMARK   23  A    between atoms: _57  and  _58
REMARK   24  A    between atoms: _61  and  _63
REMARK   25  A    between atoms: _63  and  _64
REMARK   26  A    between atoms: _63  and  _66
REMARK   27  A    between atoms: _66  and  _67
REMARK   28  A    between atoms: _67  and  _68
REMARK   29  A    between atoms: _70  and  _72
REMARK   30  A    between atoms: _72  and  _73
REMARK   31  A    between atoms: _72  and  _75
REMARK   32  A    between atoms: _75  and  _76
REMARK   33  A    between atoms: _76  and  _77
REMARK   34  A    between atoms: _80  and  _82
REMARK   35  A    between atoms: _82  and  _83
REMARK   36  A    between atoms: _82  and  _85
REMARK   37  A    between atoms: _85  and  _86
REMARK   38  A    between atoms: _89  and  _91
REMARK   39  A    between atoms: _91  and  _92
REMARK   40  A    between atoms: _91  and  _94
REMARK   41  A    between atoms: _94  and  _95
REMARK   42  A    between atoms: _97  and  _99
REMARK   43  A    between atoms: _99  and  _100
REMARK   44  A    between atoms: _99  and  _102
REMARK   45  A    between atoms: _102  and  _103
REMARK   46  A    between atoms: _108  and  _110
REMARK   47  A    between atoms: _110  and  _111
REMARK   48  A    between atoms: _110  and  _113
REMARK   49  A    between atoms: _113  and  _114
REMARK   50  A    between atoms: _116  and  _118
REMARK   51  A    between atoms: _118  and  _119
REMARK   52  A    between atoms: _118  and  _121
REMARK   53  A    between atoms: _121  and  _122
REMARK   54  A    between atoms: _125  and  _127
REMARK   55  A    between atoms: _127  and  _128
REMARK   56  A    between atoms: _131  and  _133
REMARK   57  A    between atoms: _133  and  _134
REMARK   58  A    between atoms: _133  and  _136
REMARK   59  A    between atoms: _136  and  _137
REMARK   60  A    between atoms: _137  and  _138
REMARK   61  A    between atoms: _138  and  _139
REMARK   62  A    between atoms: _139  and  _140
REMARK   63  A    between atoms: _144  and  _146
REMARK   64  A    between atoms: _146  and  _147
REMARK   65  A    between atoms: _146  and  _149
REMARK   66  A    between atoms: _149  and  _150
REMARK   67  A    between atoms: _153  and  _155
REMARK   68  A    between atoms: _155  and  _156
REMARK   69  A    between atoms: _158  and  _160
REMARK   70  A    between atoms: _160  and  _161
REMARK   71  A    between atoms: _160  and  _163
REMARK   72  A    between atoms: _163  and  _164
REMARK   73  A    between atoms: _164  and  _165
REMARK   74  A    between atoms: _167  and  _169
REMARK   75  A    between atoms: _169  and  _170
REMARK   76  A    between atoms: _169  and  _172
REMARK   77  A    between atoms: _172  and  _173
REMARK   78  A    between atoms: _176  and  _178
REMARK   79  A    between atoms: _178  and  _179
REMARK   80  A    between atoms: _178  and  _181
REMARK   81  A    between atoms: _181  and  _182
REMARK   82  A    between atoms: _182  and  _183
REMARK   83  A    between atoms: _183  and  _184
REMARK   84  A    between atoms: _184  and  _185
REMARK   85  A    between atoms: _189  and  _191
REMARK   86  A    between atoms: _191  and  _192
REMARK   87  A    between atoms: _195  and  _197
REMARK   88  A    between atoms: _197  and  _198
REMARK   89  A    between atoms: _197  and  _200
REMARK   90  A    between atoms: _200  and  _201
REMARK   91  A    between atoms: _204  and  _206
REMARK   92  A    between atoms: _206  and  _207
REMARK   93  A    between atoms: _206  and  _209
REMARK   94  A    between atoms: _209  and  _210
REMARK   95  A    between atoms: _213  and  _215
REMARK   96  A    between atoms: _215  and  _216
REMARK   97  A    between atoms: _215  and  _218
REMARK   98  A    between atoms: _218  and  _219
REMARK   99  A    between atoms: _222  and  _224
REMARK  100  A    between atoms: _224  and  _225
REMARK  101  A    between atoms: _224  and  _227
REMARK  102  A    between atoms: _227  and  _228
REMARK  103  A    between atoms: _233  and  _235
REMARK  104  A    between atoms: _235  and  _236
REMARK  105  A    between atoms: _235  and  _238
REMARK  106  A    between atoms: _238  and  _239
REMARK  107  A    between atoms: _244  and  _246
REMARK  108  A    between atoms: _246  and  _247
REMARK  109  A    between atoms: _246  and  _249
REMARK  110  A    between atoms: _249  and  _250
REMARK  111  A    between atoms: _253  and  _255
REMARK  112  A    between atoms: _255  and  _256
REMARK  113  A    between atoms: _258  and  _260
REMARK  114  A    between atoms: _260  and  _261
REMARK  115  A    between atoms: _260  and  _263
REMARK  116  A    between atoms: _263  and  _264
REMARK  117  A    between atoms: _267  and  _269
REMARK  118  A    between atoms: _269  and  _270
REMARK  119  A    between atoms: _269  and  _272
REMARK  120  A    between atoms: _272  and  _273
REMARK  121  A    between atoms: _276  and  _278
REMARK  122  A    between atoms: _278  and  _279
REMARK  123  A    between atoms: _282  and  _284
REMARK  124  A    between atoms: _284  and  _285
REMARK  125  A    between atoms: _284  and  _287
REMARK  126  A    between atoms: _287  and  _288
REMARK  127  A    between atoms: _288  and  _289
REMARK  128  A    between atoms: _289  and  _290
REMARK  129  A    between atoms: _290  and  _291
REMARK  130  A    between atoms: _295  and  _297
REMARK  131  A    between atoms: _297  and  _298
REMARK  132  A    between atoms: _300  and  _302
REMARK  133  A    between atoms: _302  and  _303
REMARK  134  A    between atoms: _302  and  _305
REMARK  135  A    between atoms: _305  and  _306
REMARK  136  A    between atoms: _309  and  _311
REMARK  137  A    between atoms: _311  and  _312
REMARK  138  A    between atoms: _311  and  _314
REMARK  139  A    between atoms: _314  and  _315
REMARK  140  A    between atoms: _321  and  _323
REMARK  141  A    between atoms: _323  and  _324
REMARK  142  A    between atoms: _326  and  _328
REMARK  143  A    between atoms: _328  and  _329
REMARK  144  A    between atoms: _328  and  _331
REMARK  145  A    between atoms: _334  and  _336
REMARK  146  A    between atoms: _336  and  _337
REMARK  147  A    between atoms: _339  and  _341
REMARK  148  A    between atoms: _341  and  _342
REMARK  149  A    between atoms: _341  and  _344
REMARK  150  A    between atoms: _344  and  _345
REMARK  151  A    between atoms: _351  and  _353
REMARK  152  A    between atoms: _353  and  _354
REMARK  153  A    between atoms: _353  and  _356
REMARK  154  A    between atoms: _356  and  _357
REMARK  155  A    between atoms: _362  and  _363
REMARK  156  A    between atoms: _365  and  _367
REMARK  157  A    between atoms: _367  and  _368
REMARK  158  A    between atoms: _367  and  _370
REMARK  159  A    between atoms: _370  and  _371
REMARK  160  A    between atoms: _376  and  _377
REMARK  161  A    between atoms: _379  and  _381
REMARK  162  A    between atoms: _381  and  _382
REMARK  163  A    between atoms: _381  and  _384
REMARK  164  A    between atoms: _387  and  _389
REMARK  165  A    between atoms: _389  and  _390
REMARK  166  A    between atoms: _389  and  _392
REMARK  167  A    between atoms: _392  and  _393
REMARK  168  A    between atoms: _396  and  _398
REMARK  169  A    between atoms: _398  and  _399
REMARK  170  A    between atoms: _398  and  _401
REMARK  171  A    between atoms: _404  and  _406
REMARK  172  A    between atoms: _406  and  _407
REMARK  173  A    between atoms: _406  and  _409
REMARK  174  A    between atoms: _409  and  _410
REMARK  175  A    between atoms: _413  and  _415
REMARK  176  A    between atoms: _415  and  _416
REMARK  177  A    between atoms: _415  and  _418
REMARK  178  A    between atoms: _418  and  _419
REMARK  179  A    between atoms: _422  and  _424
REMARK  180  A    between atoms: _424  and  _425
REMARK  181  A    between atoms: _424  and  _427
REMARK  182  A    between atoms: _427  and  _428
REMARK  183  A    between atoms: _433  and  _435
REMARK  184  A    between atoms: _435  and  _436
REMARK  185  A    between atoms: _435  and  _438
REMARK  186  A    between atoms: _438  and  _439
REMARK  187  A    between atoms: _444  and  _445
REMARK  188  A    between atoms: _447  and  _449
REMARK  189  A    between atoms: _449  and  _450
REMARK  190  A    between atoms: _453  and  _455
REMARK  191  A    between atoms: _455  and  _456
REMARK  192  A    between atoms: _455  and  _458
REMARK  193  A    between atoms: _458  and  _459
REMARK  194  A    between atoms: _469  and  _471
REMARK  195  A    between atoms: _471  and  _472
REMARK  196  A    between atoms: _471  and  _474
REMARK  197  A    between atoms: _474  and  _475
REMARK  198  A    between atoms: _475  and  _476
REMARK  199  A    between atoms: _479  and  _481
REMARK  200  A    between atoms: _481  and  _482
REMARK  201  A    between atoms: _481  and  _484
REMARK  202  A    between atoms: _484  and  _485
REMARK  203  A    between atoms: _487  and  _489
REMARK  204  A    between atoms: _489  and  _490
REMARK  205  A    between atoms: _489  and  _492
REMARK  206  A    between atoms: _492  and  _493
REMARK  207  A    between atoms: _499  and  _501
REMARK  208  A    between atoms: _501  and  _502
REMARK  209  A    between atoms: _501  and  _504
REMARK  210  A    between atoms: _504  and  _505
REMARK  211  A    between atoms: _508  and  _510
REMARK  212  A    between atoms: _510  and  _511
REMARK  213  A    between atoms: _510  and  _513
REMARK  214  A    between atoms: _516  and  _518
REMARK  215  A    between atoms: _518  and  _519
REMARK  216  A    between atoms: _518  and  _521
REMARK  217  A    between atoms: _521  and  _522
REMARK  218  A    between atoms: _525  and  _527
REMARK  219  A    between atoms: _527  and  _528
REMARK  220  A    between atoms: _527  and  _530
REMARK  221  A    between atoms: _530  and  _531
REMARK  222  A    between atoms: _531  and  _532
REMARK  223  A    between atoms: _532  and  _533
REMARK  224  A    between atoms: _533  and  _534
REMARK  225  A    between atoms: _538  and  _540
REMARK  226  A    between atoms: _540  and  _541
REMARK  227  A    between atoms: _540  and  _543
REMARK  228  A    between atoms: _546  and  _548
REMARK  229  A    between atoms: _548  and  _549
REMARK  230  A    between atoms: _548  and  _551
REMARK  231  A    between atoms: _551  and  _552
REMARK                            x       y       z     vdW  Elec       q    Type
REMARK                         _______ _______ _______ _____ _____    ______ ____
ROOT
ATOM      1  CA  VAL A   3       0.604  20.012  25.999  0.00  0.00    +0.149 C 
ENDROOT
BRANCH   1   3
ATOM      2  C   THR A   2       1.027  21.885  24.517  0.00  0.00    +0.243 C 
ATOM      3  N   VAL A   3       1.384  21.178  25.581  0.00  0.00    -0.297 N 
ATOM      4  H   VAL A   3       2.227  21.455  26.124  0.00  0.00    +0.150 HD
ATOM      5  O   THR A   2       0.045  21.609  23.836  0.00  0.00    -0.273 OA
BRANCH   2   6
ATOM      6  CA  THR A   2       1.873  23.093  24.169  0.00  0.00    +0.176 C 
BRANCH   6   9
ATOM      7  C   VAL A   1       3.426  22.898  22.296  0.00  0.00    +0.238 C 
ATOM      8  O   VAL A   1       4.425  22.934  23.021  0.00  0.00    -0.274 OA
ATOM      9  N   THR A   2       2.182  23.046  22.749  0.00  0.00    -0.295 N 
ATOM     10  H   THR A   2       1.405  23.131  22.063  0.00  0.00    +0.150 HD
BRANCH   7  11
ATOM     11  CA  VAL A   1       3.568  22.721  20.791  0.00  0.00    +0.145 C 
BRANCH  11  12
ATOM     12  CB  VAL A   1       3.994  21.264  20.476  0.00  0.00    +0.025 C 
ATOM     13  CG2 VAL A   1       2.943  20.288  20.999  0.00  0.00    +0.002 C 
ATOM     14  CG1 VAL A   1       4.202  21.071  18.976  0.00  0.00    +0.002 C 
ENDBRANCH  11  12
BRANCH  11  15
ATOM     15  N   VAL A   1       4.526  23.716  20.292  0.00  0.00    -0.238 NA
ATOM     16  H   VAL A   1       5.498  23.721  20.663  0.00  0.00    +0.142 HD
ENDBRANCH  11  15
ENDBRANCH   7  11
ENDBRANCH   6   9
BRANCH   6  17
ATOM     17  CB  THR A   2       1.060  24.359  24.517  0.00  0.00    +0.137 C 
ATOM     18  CG2 THR A   2       0.891  24.499  26.027  0.00  0.00    +0.034 C 
BRANCH  17  19
ATOM     19  OG1 THR A   2       1.746  25.503  24.006  0.00  0.00    -0.382 OA
ATOM     20  HG1 THR A   2       2.645  25.558  24.417  0.00  0.00    +0.210 HD
ENDBRANCH  17  19
ENDBRANCH   6  17
ENDBRANCH   2   6
ENDBRANCH   1   3
BRANCH   1  21
ATOM     21  C   VAL A   3       0.118  20.205  27.436  0.00  0.00    +0.241 C 
ATOM     22  O   VAL A   3       0.925  20.444  28.344  0.00  0.00    -0.273 OA
ATOM     23  N   ILE A   4      -1.197  20.115  27.626  0.00  0.00    -0.297 N 
ATOM     24  H   ILE A   4      -1.818  20.005  26.799  0.00  0.00    +0.150 HD
BRANCH  23  25
ATOM     25  CA  ILE A   4      -1.794  20.166  28.954  0.00  0.00    +0.149 C 
BRANCH  25  26
ATOM     26  C   ILE A   4      -2.169  18.736  29.270  0.00  0.00    +0.241 C 
ATOM     27  N   THR A   5      -1.769  18.248  30.445  0.00  0.00    -0.296 N 
ATOM     28  H   THR A   5      -1.280  18.869  31.121  0.00  0.00    +0.150 HD
ATOM     29  O   ILE A   4      -2.817  18.082  28.451  0.00  0.00    -0.273 OA
BRANCH  27  30
ATOM     30  CA  THR A   5      -2.011  16.851  30.791  0.00  0.00    +0.164 C 
BRANCH  30  31
ATOM     31  C   THR A   5      -2.344  16.651  32.277  0.00  0.00    +0.229 C 
ATOM     32  O   THR A   5      -1.871  17.392  33.155  0.00  0.00    -0.286 OA
ENDBRANCH  30  31
BRANCH  30  33
ATOM     33  CB  THR A   5      -0.841  15.928  30.345  0.00  0.00    +0.136 C 
ATOM     34  CG2 THR A   5       0.447  16.206  31.138  0.00  0.00    +0.034 C 
BRANCH  33  35
ATOM     35  OG1 THR A   5      -1.207  14.548  30.510  0.00  0.00    -0.382 OA
ATOM     36  HG1 THR A   5      -2.005  14.351  29.958  0.00  0.00    +0.210 HD
ENDBRANCH  33  35
ENDBRANCH  30  33
ENDBRANCH  27  30
ENDBRANCH  25  26
BRANCH  25  37
ATOM     37  CB  ILE A   4      -3.074  21.039  28.976  0.00  0.00    +0.027 C 
ATOM     38  CG2 ILE A   4      -3.560  21.254  30.413  0.00  0.00    +0.002 C 
BRANCH  37  39
ATOM     39  CG1 ILE A   4      -2.827  22.399  28.308  0.00  0.00    +0.002 C 
ATOM     40  CD1 ILE A   4      -1.742  23.230  28.971  0.00  0.00    +0.000 C 
ENDBRANCH  37  39
ENDBRANCH  25  37
ENDBRANCH  23  25
ENDBRANCH   1  21
BRANCH   1  41
ATOM     41  CB  VAL A   3       1.425  18.719  25.903  0.00  0.00    +0.027 C 
ATOM     42  CG2 VAL A   3       0.582  17.515  26.304  0.00  0.00    +0.002 C 
ATOM     43  CG1 VAL A   3       1.952  18.532  24.487  0.00  0.00    +0.002 C 
ENDBRANCH   1  41
TORSDOF 18
REMARK  Name = ../refined-set-2016/4cwt/4cwt_pocket.pdb
REMARK  231 active torsions:
REMARK  status: ('A' for Active; 'I' for Inactive)
REMARK    1  A    between atoms: _1  and  _3
REMARK    2  A    between atoms: _3  and  _4
REMARK    3  A    between atoms: _3  and  _6
REMARK    4  A    between atoms: _6  and  _7
REMARK    5  A    between atoms: _13  and  _15
REMARK    6  A    between atoms: _15  and  _16
REMARK    7  A    between atoms: _19  and  _21
REMARK    8  A    between atoms: _21  and  _22
REMARK    9  A    between atoms: _21  and  _24
REMARK   10  A    between atoms: _24  and  _25
REMARK   11  A    between atoms: _31  and  _33
REMARK   12  A    between atoms: _33  and  _34
REMARK   13  A    between atoms: _33  and  _36
REMARK   14  A    between atoms: _36  and  _37
REMARK   15  A    between atoms: _37  and  _38
REMARK   16  A    between atoms: _43  and  _45
REMARK   17  A    between atoms: _45  and  _46
REMARK   18  A    between atoms: _45  and  _48
REMARK   19  A    between atoms: _48  and  _49
REMARK   20  A    between atoms: _52  and  _54
REMARK   21  A    between atoms: _54  and  _55
REMARK   22  A    between atoms: _54  and  _57
REMARK   23  A    between atoms: _57  and  _58
REMARK   24  A    between atoms: _61  and  _63
REMARK   25  A    between atoms: _63  and  _64
REMARK   26  A    between atoms: _63  and  _66
REMARK   27  A    between atoms: _66  and  _67
REMARK   28  A    between atoms: _67  and  _68
REMARK   29  A    between atoms: _70  and  _72
REMARK   30  A    between atoms: _72  and  _73
REMARK   31  A    between atoms: _72  and  _75
REMARK   32  A    between atoms: _75  and  _76
REMARK   33  A    between atoms: _76  and  _77
REMARK   34  A    between atoms: _80  and  _82
REMARK   35  A    between atoms: _82  and  _83
REMARK   36  A    between atoms: _82  and  _85
REMARK   37  A    between atoms: _85  and  _86
REMARK   38  A    between atoms: _89  and  _91
REMARK   39  A    between atoms: _91  and  _92
REMARK   40  A    between atoms: _91  and  _94
REMARK   41  A    between atoms: _94  and  _95
REMARK   42  A    between atoms: _97  and  _99
REMARK   43  A    between atoms: _99  and  _100
REMARK   44  A    between atoms: _99  and  _102
REMARK   45  A    between atoms: _102  and  _103
REMARK   46  A    between atoms: _108  and  _110
REMARK   47  A    between atoms: _110  and  _111
REMARK   48  A    between atoms: _110  and  _113
REMARK   49  A    between atoms: _113  and  _114
REMARK   50  A    between atoms: _116  and  _118
REMARK   51  A    between atoms: _118  and  _119
REMARK   52  A    between atoms: _118  and  _121
REMARK   53  A    between atoms: _121  and  _122
REMARK   54  A    between atoms: _125  and  _127
REMARK   55  A    between atoms: _127  and  _128
REMARK   56  A    between atoms: _131  and  _133
REMARK   57  A    between atoms: _133  and  _134
REMARK   58  A    between atoms: _133  and  _136
REMARK   59  A    between atoms: _136  and  _137
REMARK   60  A    between atoms: _137  and  _138
REMARK   61  A    between atoms: _138  and  _139
REMARK   62  A    between atoms: _139  and  _140
REMARK   63  A    between atoms: _144  and  _146
REMARK   64  A    between atoms: _146  and  _147
REMARK   65  A    between atoms: _146  and  _149
REMARK   66  A    between atoms: _149  and  _150
REMARK   67  A    between atoms: _153  and  _155
REMARK   68  A    between atoms: _155  and  _156
REMARK   69  A    between atoms: _158  and  _160
REMARK   70  A    between atoms: _160  and  _161
REMARK   71  A    between atoms: _160  and  _163
REMARK   72  A    between atoms: _163  and  _164
REMARK   73  A    between atoms: _164  and  _165
REMARK   74  A    between atoms: _167  and  _169
REMARK   75  A    between atoms: _169  and  _170
REMARK   76  A    between atoms: _169  and  _172
REMARK   77  A    between atoms: _172  and  _173
REMARK   78  A    between atoms: _176  and  _178
REMARK   79  A    between atoms: _178  and  _179
REMARK   80  A    between atoms: _178  and  _181
REMARK   81  A    between atoms: _181  and  _182
REMARK   82  A    between atoms: _182  and  _183
REMARK   83  A    between atoms: _183  and  _184
REMARK   84  A    between atoms: _184  and  _185
REMARK   85  A    between atoms: _189  and  _191
REMARK   86  A    between atoms: _191  and  _192
REMARK   87  A    between atoms: _195  and  _197
REMARK   88  A    between atoms: _197  and  _198
REMARK   89  A    between atoms: _197  and  _200
REMARK   90  A    between atoms: _200  and  _201
REMARK   91  A    between atoms: _204  and  _206
REMARK   92  A    between atoms: _206  and  _207
REMARK   93  A    between atoms: _206  and  _209
REMARK   94  A    between atoms: _209  and  _210
REMARK   95  A    between atoms: _213  and  _215
REMARK   96  A    between atoms: _215  and  _216
REMARK   97  A    between atoms: _215  and  _218
REMARK   98  A    between atoms: _218  and  _219
REMARK   99  A    between atoms: _222  and  _224
REMARK  100  A    between atoms: _224  and  _225
REMARK  101  A    between atoms: _224  and  _227
REMARK  102  A    between atoms: _227  and  _228
REMARK  103  A    between atoms: _233  and  _235
REMARK  104  A    between atoms: _235  and  _236
REMARK  105  A    between atoms: _235  and  _238
REMARK  106  A    between atoms: _238  and  _239
REMARK  107  A    between atoms: _244  and  _246
REMARK  108  A    between atoms: _246  and  _247
REMARK  109  A    between atoms: _246  and  _249
REMARK  110  A    between atoms: _249  and  _250
REMARK  111  A    between atoms: _253  and  _255
REMARK  112  A    between atoms: _255  and  _256
REMARK  113  A    between atoms: _258  and  _260
REMARK  114  A    between atoms: _260  and  _261
REMARK  115  A    between atoms: _260  and  _263
REMARK  116  A    between atoms: _263  and  _264
REMARK  117  A    between atoms: _267  and  _269
REMARK  118  A    between atoms: _269  and  _270
REMARK  119  A    between atoms: _269  and  _272
REMARK  120  A    between atoms: _272  and  _273
REMARK  121  A    between atoms: _276  and  _278
REMARK  122  A    between atoms: _278  and  _279
REMARK  123  A    between atoms: _282  and  _284
REMARK  124  A    between atoms: _284  and  _285
REMARK  125  A    between atoms: _284  and  _287
REMARK  126  A    between atoms: _287  and  _288
REMARK  127  A    between atoms: _288  and  _289
REMARK  128  A    between atoms: _289  and  _290
REMARK  129  A    between atoms: _290  and  _291
REMARK  130  A    between atoms: _295  and  _297
REMARK  131  A    between atoms: _297  and  _298
REMARK  132  A    between atoms: _300  and  _302
REMARK  133  A    between atoms: _302  and  _303
REMARK  134  A    between atoms: _302  and  _305
REMARK  135  A    between atoms: _305  and  _306
REMARK  136  A    between atoms: _309  and  _311
REMARK  137  A    between atoms: _311  and  _312
REMARK  138  A    between atoms: _311  and  _314
REMARK  139  A    between atoms: _314  and  _315
REMARK  140  A    between atoms: _321  and  _323
REMARK  141  A    between atoms: _323  and  _324
REMARK  142  A    between atoms: _326  and  _328
REMARK  143  A    between atoms: _328  and  _329
REMARK  144  A    between atoms: _328  and  _331
REMARK  145  A    between atoms: _334  and  _336
REMARK  146  A    between atoms: _336  and  _337
REMARK  147  A    between atoms: _339  and  _341
REMARK  148  A    between atoms: _341  and  _342
REMARK  149  A    between atoms: _341  and  _344
REMARK  150  A    between atoms: _344  and  _345
REMARK  151  A    between atoms: _351  and  _353
REMARK  152  A    between atoms: _353  and  _354
REMARK  153  A    between atoms: _353  and  _356
REMARK  154  A    between atoms: _356  and  _357
REMARK  155  A    between atoms: _362  and  _363
REMARK  156  A    between atoms: _365  and  _367
REMARK  157  A    between atoms: _367  and  _368
REMARK  158  A    between atoms: _367  and  _370
REMARK  159  A    between atoms: _370  and  _371
REMARK  160  A    between atoms: _376  and  _377
REMARK  161  A    between atoms: _379  and  _381
REMARK  162  A    between atoms: _381  and  _382
REMARK  163  A    between atoms: _381  and  _384
REMARK  164  A    between atoms: _387  and  _389
REMARK  165  A    between atoms: _389  and  _390
REMARK  166  A    between atoms: _389  and  _392
REMARK  167  A    between atoms: _392  and  _393
REMARK  168  A    between atoms: _396  and  _398
REMARK  169  A    between atoms: _398  and  _399
REMARK  170  A    between atoms: _398  and  _401
REMARK  171  A    between atoms: _404  and  _406
REMARK  172  A    between atoms: _406  and  _407
REMARK  173  A    between atoms: _406  and  _409
REMARK  174  A    between atoms: _409  and  _410
REMARK  175  A    between atoms: _413  and  _415
REMARK  176  A    between atoms: _415  and  _416
REMARK  177  A    between atoms: _415  and  _418
REMARK  178  A    between atoms: _418  and  _419
REMARK  179  A    between atoms: _422  and  _424
REMARK  180  A    between atoms: _424  and  _425
REMARK  181  A    between atoms: _424  and  _427
REMARK  182  A    between atoms: _427  and  _428
REMARK  183  A    between atoms: _433  and  _435
REMARK  184  A    between atoms: _435  and  _436
REMARK  185  A    between atoms: _435  and  _438
REMARK  186  A    between atoms: _438  and  _439
REMARK  187  A    between atoms: _444  and  _445
REMARK  188  A    between atoms: _447  and  _449
REMARK  189  A    between atoms: _449  and  _450
REMARK  190  A    between atoms: _453  and  _455
REMARK  191  A    between atoms: _455  and  _456
REMARK  192  A    between atoms: _455  and  _458
REMARK  193  A    between atoms: _458  and  _459
REMARK  194  A    between atoms: _469  and  _471
REMARK  195  A    between atoms: _471  and  _472
REMARK  196  A    between atoms: _471  and  _474
REMARK  197  A    between atoms: _474  and  _475
REMARK  198  A    between atoms: _475  and  _476
REMARK  199  A    between atoms: _479  and  _481
REMARK  200  A    between atoms: _481  and  _482
REMARK  201  A    between atoms: _481  and  _484
REMARK  202  A    between atoms: _484  and  _485
REMARK  203  A    between atoms: _487  and  _489
REMARK  204  A    between atoms: _489  and  _490
REMARK  205  A    between atoms: _489  and  _492
REMARK  206  A    between atoms: _492  and  _493
REMARK  207  A    between atoms: _499  and  _501
REMARK  208  A    between atoms: _501  and  _502
REMARK  209  A    between atoms: _501  and  _504
REMARK  210  A    between atoms: _504  and  _505
REMARK  211  A    between atoms: _508  and  _510
REMARK  212  A    between atoms: _510  and  _511
REMARK  213  A    between atoms: _510  and  _513
REMARK  214  A    between atoms: _516  and  _518
REMARK  215  A    between atoms: _518  and  _519
REMARK  216  A    between atoms: _518  and  _521
REMARK  217  A    between atoms: _521  and  _522
REMARK  218  A    between atoms: _525  and  _527
REMARK  219  A    between atoms: _527  and  _528
REMARK  220  A    between atoms: _527  and  _530
REMARK  221  A    between atoms: _530  and  _531
REMARK  222  A    between atoms: _531  and  _532
REMARK  223  A    between atoms: _532  and  _533
REMARK  224  A    between atoms: _533  and  _534
REMARK  225  A    between atoms: _538  and  _540
REMARK  226  A    between atoms: _540  and  _541
REMARK  227  A    between atoms: _540  and  _543
REMARK  228  A    between atoms: _546  and  _548
REMARK  229  A    between atoms: _548  and  _549
REMARK  230  A    between atoms: _548  and  _551
REMARK  231  A    between atoms: _551  and  _552
REMARK                            x       y       z     vdW  Elec       q    Type
REMARK                         _______ _______ _______ _____ _____    ______ ____
ROOT
ATOM      1  CB  HIS A   1      -1.477  11.314  35.259  0.00  0.00    +0.072 C 
ENDROOT
BRANCH   1   2
ATOM      2  CG  HIS A   1      -1.320   9.808  35.382  0.00  0.00    +0.082 A 
ATOM      3  ND1 HIS A   1      -1.523   9.147  36.542  0.00  0.00    -0.227 NA
ATOM      4  CE1 HIS A   1      -1.285   7.831  36.357  0.00  0.00    +0.199 A 
ATOM      5  NE2 HIS A   1      -0.922   7.647  35.083  0.00  0.00    -0.221 NA
ATOM      6  CD2 HIS A   1      -0.925   8.848  34.451  0.00  0.00    +0.115 A 
ENDBRANCH   1   2
BRANCH   1   7
ATOM      7  CA  HIS A   1      -2.929  11.814  35.256  0.00  0.00    +0.139 C 
BRANCH   7   8
ATOM      8  N   HIS A   1      -2.925  13.241  34.923  0.00  0.00    -0.239 NA
ATOM      9  H   HIS A   1      -2.248  13.851  35.424  0.00  0.00    +0.142 HD
ENDBRANCH   7   8
BRANCH   7  10
ATOM     10  C   HIS A   1      -3.554  11.688  36.627  0.00  0.00    +0.224 C 
ATOM     11  O   HIS A   1      -3.379  12.575  37.470  0.00  0.00    -0.287 OA
ENDBRANCH   7  10
ENDBRANCH   1   7
TORSDOF 4
REMARK  Name = ../refined-set-2016/4cwt/4cwt_pocket.pdb
REMARK  231 active torsions:
REMARK  status: ('A' for Active; 'I' for Inactive)
REMARK    1  A    between atoms: _1  and  _3
REMARK    2  A    between atoms: _3  and  _4
REMARK    3  A    between atoms: _3  and  _6
REMARK    4  A    between atoms: _6  and  _7
REMARK    5  A    between atoms: _13  and  _15
REMARK    6  A    between atoms: _15  and  _16
REMARK    7  A    between atoms: _19  and  _21
REMARK    8  A    between atoms: _21  and  _22
REMARK    9  A    between atoms: _21  and  _24
REMARK   10  A    between atoms: _24  and  _25
REMARK   11  A    between atoms: _31  and  _33
REMARK   12  A    between atoms: _33  and  _34
REMARK   13  A    between atoms: _33  and  _36
REMARK   14  A    between atoms: _36  and  _37
REMARK   15  A    between atoms: _37  and  _38
REMARK   16  A    between atoms: _43  and  _45
REMARK   17  A    between atoms: _45  and  _46
REMARK   18  A    between atoms: _45  and  _48
REMARK   19  A    between atoms: _48  and  _49
REMARK   20  A    between atoms: _52  and  _54
REMARK   21  A    between atoms: _54  and  _55
REMARK   22  A    between atoms: _54  and  _57
REMARK   23  A    between atoms: _57  and  _58
REMARK   24  A    between atoms: _61  and  _63
REMARK   25  A    between atoms: _63  and  _64
REMARK   26  A    between atoms: _63  and  _66
REMARK   27  A    between atoms: _66  and  _67
REMARK   28  A    between atoms: _67  and  _68
REMARK   29  A    between atoms: _70  and  _72
REMARK   30  A    between atoms: _72  and  _73
REMARK   31  A    between atoms: _72  and  _75
REMARK   32  A    between atoms: _75  and  _76
REMARK   33  A    between atoms: _76  and  _77
REMARK   34  A    between atoms: _80  and  _82
REMARK   35  A    between atoms: _82  and  _83
REMARK   36  A    between atoms: _82  and  _85
REMARK   37  A    between atoms: _85  and  _86
REMARK   38  A    between atoms: _89  and  _91
REMARK   39  A    between atoms: _91  and  _92
REMARK   40  A    between atoms: _91  and  _94
REMARK   41  A    between atoms: _94  and  _95
REMARK   42  A    between atoms: _97  and  _99
REMARK   43  A    between atoms: _99  and  _100
REMARK   44  A    between atoms: _99  and  _102
REMARK   45  A    between atoms: _102  and  _103
REMARK   46  A    between atoms: _108  and  _110
REMARK   47  A    between atoms: _110  and  _111
REMARK   48  A    between atoms: _110  and  _113
REMARK   49  A    between atoms: _113  and  _114
REMARK   50  A    between atoms: _116  and  _118
REMARK   51  A    between atoms: _118  and  _119
REMARK   52  A    between atoms: _118  and  _121
REMARK   53  A    between atoms: _121  and  _122
REMARK   54  A    between atoms: _125  and  _127
REMARK   55  A    between atoms: _127  and  _128
REMARK   56  A    between atoms: _131  and  _133
REMARK   57  A    between atoms: _133  and  _134
REMARK   58  A    between atoms: _133  and  _136
REMARK   59  A    between atoms: _136  and  _137
REMARK   60  A    between atoms: _137  and  _138
REMARK   61  A    between atoms: _138  and  _139
REMARK   62  A    between atoms: _139  and  _140
REMARK   63  A    between atoms: _144  and  _146
REMARK   64  A    between atoms: _146  and  _147
REMARK   65  A    between atoms: _146  and  _149
REMARK   66  A    between atoms: _149  and  _150
REMARK   67  A    between atoms: _153  and  _155
REMARK   68  A    between atoms: _155  and  _156
REMARK   69  A    between atoms: _158  and  _160
REMARK   70  A    between atoms: _160  and  _161
REMARK   71  A    between atoms: _160  and  _163
REMARK   72  A    between atoms: _163  and  _164
REMARK   73  A    between atoms: _164  and  _165
REMARK   74  A    between atoms: _167  and  _169
REMARK   75  A    between atoms: _169  and  _170
REMARK   76  A    between atoms: _169  and  _172
REMARK   77  A    between atoms: _172  and  _173
REMARK   78  A    between atoms: _176  and  _178
REMARK   79  A    between atoms: _178  and  _179
REMARK   80  A    between atoms: _178  and  _181
REMARK   81  A    between atoms: _181  and  _182
REMARK   82  A    between atoms: _182  and  _183
REMARK   83  A    between atoms: _183  and  _184
REMARK   84  A    between atoms: _184  and  _185
REMARK   85  A    between atoms: _189  and  _191
REMARK   86  A    between atoms: _191  and  _192
REMARK   87  A    between atoms: _195  and  _197
REMARK   88  A    between atoms: _197  and  _198
REMARK   89  A    between atoms: _197  and  _200
REMARK   90  A    between atoms: _200  and  _201
REMARK   91  A    between atoms: _204  and  _206
REMARK   92  A    between atoms: _206  and  _207
REMARK   93  A    between atoms: _206  and  _209
REMARK   94  A    between atoms: _209  and  _210
REMARK   95  A    between atoms: _213  and  _215
REMARK   96  A    between atoms: _215  and  _216
REMARK   97  A    between atoms: _215  and  _218
REMARK   98  A    between atoms: _218  and  _219
REMARK   99  A    between atoms: _222  and  _224
REMARK  100  A    between atoms: _224  and  _225
REMARK  101  A    between atoms: _224  and  _227
REMARK  102  A    between atoms: _227  and  _228
REMARK  103  A    between atoms: _233  and  _235
REMARK  104  A    between atoms: _235  and  _236
REMARK  105  A    between atoms: _235  and  _238
REMARK  106  A    between atoms: _238  and  _239
REMARK  107  A    between atoms: _244  and  _246
REMARK  108  A    between atoms: _246  and  _247
REMARK  109  A    between atoms: _246  and  _249
REMARK  110  A    between atoms: _249  and  _250
REMARK  111  A    between atoms: _253  and  _255
REMARK  112  A    between atoms: _255  and  _256
REMARK  113  A    between atoms: _258  and  _260
REMARK  114  A    between atoms: _260  and  _261
REMARK  115  A    between atoms: _260  and  _263
REMARK  116  A    between atoms: _263  and  _264
REMARK  117  A    between atoms: _267  and  _269
REMARK  118  A    between atoms: _269  and  _270
REMARK  119  A    between atoms: _269  and  _272
REMARK  120  A    between atoms: _272  and  _273
REMARK  121  A    between atoms: _276  and  _278
REMARK  122  A    between atoms: _278  and  _279
REMARK  123  A    between atoms: _282  and  _284
REMARK  124  A    between atoms: _284  and  _285
REMARK  125  A    between atoms: _284  and  _287
REMARK  126  A    between atoms: _287  and  _288
REMARK  127  A    between atoms: _288  and  _289
REMARK  128  A    between atoms: _289  and  _290
REMARK  129  A    between atoms: _290  and  _291
REMARK  130  A    between atoms: _295  and  _297
REMARK  131  A    between atoms: _297  and  _298
REMARK  132  A    between atoms: _300  and  _302
REMARK  133  A    between atoms: _302  and  _303
REMARK  134  A    between atoms: _302  and  _305
REMARK  135  A    between atoms: _305  and  _306
REMARK  136  A    between atoms: _309  and  _311
REMARK  137  A    between atoms: _311  and  _312
REMARK  138  A    between atoms: _311  and  _314
REMARK  139  A    between atoms: _314  and  _315
REMARK  140  A    between atoms: _321  and  _323
REMARK  141  A    between atoms: _323  and  _324
REMARK  142  A    between atoms: _326  and  _328
REMARK  143  A    between atoms: _328  and  _329
REMARK  144  A    between atoms: _328  and  _331
REMARK  145  A    between atoms: _334  and  _336
REMARK  146  A    between atoms: _336  and  _337
REMARK  147  A    between atoms: _339  and  _341
REMARK  148  A    between atoms: _341  and  _342
REMARK  149  A    between atoms: _341  and  _344
REMARK  150  A    between atoms: _344  and  _345
REMARK  151  A    between atoms: _351  and  _353
REMARK  152  A    between atoms: _353  and  _354
REMARK  153  A    between atoms: _353  and  _356
REMARK  154  A    between atoms: _356  and  _357
REMARK  155  A    between atoms: _362  and  _363
REMARK  156  A    between atoms: _365  and  _367
REMARK  157  A    between atoms: _367  and  _368
REMARK  158  A    between atoms: _367  and  _370
REMARK  159  A    between atoms: _370  and  _371
REMARK  160  A    between atoms: _376  and  _377
REMARK  161  A    between atoms: _379  and  _381
REMARK  162  A    between atoms: _381  and  _382
REMARK  163  A    between atoms: _381  and  _384
REMARK  164  A    between atoms: _387  and  _389
REMARK  165  A    between atoms: _389  and  _390
REMARK  166  A    between atoms: _389  and  _392
REMARK  167  A    between atoms: _392  and  _393
REMARK  168  A    between atoms: _396  and  _398
REMARK  169  A    between atoms: _398  and  _399
REMARK  170  A    between atoms: _398  and  _401
REMARK  171  A    between atoms: _404  and  _406
REMARK  172  A    between atoms: _406  and  _407
REMARK  173  A    between atoms: _406  and  _409
REMARK  174  A    between atoms: _409  and  _410
REMARK  175  A    between atoms: _413  and  _415
REMARK  176  A    between atoms: _415  and  _416
REMARK  177  A    between atoms: _415  and  _418
REMARK  178  A    between atoms: _418  and  _419
REMARK  179  A    between atoms: _422  and  _424
REMARK  180  A    between atoms: _424  and  _425
REMARK  181  A    between atoms: _424  and  _427
REMARK  182  A    between atoms: _427  and  _428
REMARK  183  A    between atoms: _433  and  _435
REMARK  184  A    between atoms: _435  and  _436
REMARK  185  A    between atoms: _435  and  _438
REMARK  186  A    between atoms: _438  and  _439
REMARK  187  A    between atoms: _444  and  _445
REMARK  188  A    between atoms: _447  and  _449
REMARK  189  A    between atoms: _449  and  _450
REMARK  190  A    between atoms: _453  and  _455
REMARK  191  A    between atoms: _455  and  _456
REMARK  192  A    between atoms: _455  and  _458
REMARK  193  A    between atoms: _458  and  _459
REMARK  194  A    between atoms: _469  and  _471
REMARK  195  A    between atoms: _471  and  _472
REMARK  196  A    between atoms: _471  and  _474
REMARK  197  A    between atoms: _474  and  _475
REMARK  198  A    between atoms: _475  and  _476
REMARK  199  A    between atoms: _479  and  _481
REMARK  200  A    between atoms: _481  and  _482
REMARK  201  A    between atoms: _481  and  _484
REMARK  202  A    between atoms: _484  and  _485
REMARK  203  A    between atoms: _487  and  _489
REMARK  204  A    between atoms: _489  and  _490
REMARK  205  A    between atoms: _489  and  _492
REMARK  206  A    between atoms: _492  and  _493
REMARK  207  A    between atoms: _499  and  _501
REMARK  208  A    between atoms: _501  and  _502
REMARK  209  A    between atoms: _501  and  _504
REMARK  210  A    between atoms: _504  and  _505
REMARK  211  A    between atoms: _508  and  _510
REMARK  212  A    between atoms: _510  and  _511
REMARK  213  A    between atoms: _510  and  _513
REMARK  214  A    between atoms: _516  and  _518
REMARK  215  A    between atoms: _518  and  _519
REMARK  216  A    between atoms: _518  and  _521
REMARK  217  A    between atoms: _521  and  _522
REMARK  218  A    between atoms: _525  and  _527
REMARK  219  A    between atoms: _527  and  _528
REMARK  220  A    between atoms: _527  and  _530
REMARK  221  A    between atoms: _530  and  _531
REMARK  222  A    between atoms: _531  and  _532
REMARK  223  A    between atoms: _532  and  _533
REMARK  224  A    between atoms: _533  and  _534
REMARK  225  A    between atoms: _538  and  _540
REMARK  226  A    between atoms: _540  and  _541
REMARK  227  A    between atoms: _540  and  _543
REMARK  228  A    between atoms: _546  and  _548
REMARK  229  A    between atoms: _548  and  _549
REMARK  230  A    between atoms: _548  and  _551
REMARK  231  A    between atoms: _551  and  _552
REMARK                            x       y       z     vdW  Elec       q    Type
REMARK                         _______ _______ _______ _____ _____    ______ ____
ROOT
ATOM      1  CA  TRP A   3       4.611  21.096  28.795  0.00  0.00    +0.153 C 
ENDROOT
BRANCH   1   4
ATOM      2  C   ALA A   2       3.145  22.008  30.533  0.00  0.00    +0.241 C 
ATOM      3  O   ALA A   2       4.095  22.448  31.209  0.00  0.00    -0.273 OA
ATOM      4  N   TRP A   3       3.305  21.302  29.417  0.00  0.00    -0.297 N 
ATOM      5  H   TRP A   3       2.467  20.880  28.969  0.00  0.00    +0.150 HD
BRANCH   2   6
ATOM      6  CA  ALA A   2       1.704  22.236  30.962  0.00  0.00    +0.149 C 
ATOM      7  CB  ALA A   2       1.345  23.720  30.892  0.00  0.00    +0.031 C 
BRANCH   6   9
ATOM      8  C   TYR A   1       0.797  20.660  32.602  0.00  0.00    +0.239 C 
ATOM      9  N   ALA A   2       1.554  21.720  32.316  0.00  0.00    -0.297 N 
ATOM     10  H   ALA A   2       2.057  22.197  33.091  0.00  0.00    +0.150 HD
ATOM     11  O   TYR A   1       0.031  20.121  31.782  0.00  0.00    -0.274 OA
BRANCH   8  12
ATOM     12  CA  TYR A   1       0.942  20.121  34.012  0.00  0.00    +0.149 C 
BRANCH  12  13
ATOM     13  N   TYR A   1      -0.280  19.451  34.493  0.00  0.00    -0.238 NA
ATOM     14  H   TYR A   1      -0.674  18.666  33.936  0.00  0.00    +0.142 HD
ENDBRANCH  12  13
BRANCH  12  15
ATOM     15  CB  TYR A   1       2.144  19.160  34.030  0.00  0.00    +0.053 C 
BRANCH  15  16
ATOM     16  CG  TYR A   1       2.473  18.581  35.384  0.00  0.00    -0.020 A 
ATOM     17  CD2 TYR A   1       3.119  19.353  36.363  0.00  0.00    -0.001 A 
ATOM     18  CE2 TYR A   1       3.430  18.820  37.612  0.00  0.00    +0.036 A 
ATOM     19  CZ  TYR A   1       3.088  17.503  37.892  0.00  0.00    +0.134 A 
ATOM     20  CE1 TYR A   1       2.454  16.716  36.936  0.00  0.00    +0.036 A 
ATOM     21  CD1 TYR A   1       2.157  17.258  35.685  0.00  0.00    -0.001 A 
BRANCH  19  22
ATOM     22  OH  TYR A   1       3.394  16.964  39.117  0.00  0.00    -0.506 OA
ATOM     23  HH  TYR A   1       2.562  16.663  39.561  0.00  0.00    +0.292 HD
ENDBRANCH  19  22
ENDBRANCH  15  16
ENDBRANCH  12  15
ENDBRANCH   8  12
ENDBRANCH   6   9
ENDBRANCH   2   6
ENDBRANCH   1   4
BRANCH   1  24
ATOM     24  C   TRP A   3       4.617  21.961  27.578  0.00  0.00    +0.241 C 
ATOM     25  N   GLU A   4       5.765  22.532  27.225  0.00  0.00    -0.297 N 
ATOM     26  H   GLU A   4       6.618  22.382  27.800  0.00  0.00    +0.150 HD
ATOM     27  O   TRP A   3       3.581  22.106  26.918  0.00  0.00    -0.273 OA
BRANCH  25  28
ATOM     28  CA  GLU A   4       5.829  23.371  26.028  0.00  0.00    +0.149 C 
BRANCH  28  29
ATOM     29  C   GLU A   4       7.202  23.381  25.383  0.00  0.00    +0.241 C 
ATOM     30  O   GLU A   4       8.221  23.300  26.076  0.00  0.00    -0.273 OA
ATOM     31  N   SER A   5       7.237  23.441  24.049  0.00  0.00    -0.296 N 
ATOM     32  H   SER A   5       6.350  23.396  23.508  0.00  0.00    +0.150 HD
BRANCH  31  33
ATOM     33  CA  SER A   5       8.510  23.570  23.341  0.00  0.00    +0.166 C 
BRANCH  33  34
ATOM     34  C   SER A   5       8.332  24.131  21.941  0.00  0.00    +0.229 C 
ATOM     35  O   SER A   5       7.425  23.723  21.201  0.00  0.00    -0.286 OA
ENDBRANCH  33  34
BRANCH  33  36
ATOM     36  CB  SER A   5       9.247  22.227  23.243  0.00  0.00    +0.165 C 
BRANCH  36  37
ATOM     37  OG  SER A   5      10.517  22.416  22.614  0.00  0.00    -0.380 OA
ATOM     38  H   SER A   5      11.058  23.049  23.150  0.00  0.00    +0.211 HD
ENDBRANCH  36  37
ENDBRANCH  33  36
ENDBRANCH  31  33
ENDBRANCH  28  29
BRANCH  28  39
ATOM     39  CB  GLU A   4       5.400  24.787  26.381  0.00  0.00    +0.041 C 
BRANCH  39  40
ATOM     40  CG  GLU A   4       5.138  25.682  25.187  0.00  0.00    +0.116 C 
BRANCH  40  41
ATOM     41  CD  GLU A   4       4.461  26.960  25.615  0.00  0.00    +0.365 C 
ATOM     42  OE2 GLU A   4       5.157  27.838  26.183  0.00  0.00    -0.246 OA
ATOM     43  OE1 GLU A   4       3.236  27.067  25.420  0.00  0.00    -0.246 OA
ENDBRANCH  40  41
ENDBRANCH  39  40
ENDBRANCH  28  39
ENDBRANCH  25  28
ENDBRANCH   1  24
BRANCH   1  44
ATOM     44  CB  TRP A   3       4.726  19.626  28.398  0.00  0.00    +0.057 C 
BRANCH  44  45
ATOM     45  CG  TRP A   3       5.971  19.222  27.621  0.00  0.00    -0.002 A 
ATOM     46  CD1 TRP A   3       7.109  18.600  28.117  0.00  0.00    +0.068 A 
ATOM     47  NE1 TRP A   3       8.021  18.369  27.107  0.00  0.00    -0.352 N 
ATOM     48  HE1 TRP A   3       8.945  17.910  27.240  0.00  0.00    +0.166 HD
ATOM     49  CE2 TRP A   3       7.550  18.821  25.916  0.00  0.00    +0.056 A 
ATOM     50  CZ2 TRP A   3       8.115  18.798  24.639  0.00  0.00    +0.017 A 
ATOM     51  CH2 TRP A   3       7.361  19.348  23.595  0.00  0.00    +0.001 A 
ATOM     52  CZ3 TRP A   3       6.087  19.894  23.812  0.00  0.00    +0.000 A 
ATOM     53  CE3 TRP A   3       5.505  19.915  25.093  0.00  0.00    +0.001 A 
ATOM     54  CD2 TRP A   3       6.225  19.384  26.165  0.00  0.00    +0.013 A 
ENDBRANCH  44  45
ENDBRANCH   1  44
TORSDOF 20
REMARK  Name = ../refined-set-2016/4cwt/4cwt_pocket.pdb
REMARK  231 active torsions:
REMARK  status: ('A' for Active; 'I' for Inactive)
REMARK    1  A    between atoms: _1  and  _3
REMARK    2  A    between atoms: _3  and  _4
REMARK    3  A    between atoms: _3  and  _6
REMARK    4  A    between atoms: _6  and  _7
REMARK    5  A    between atoms: _13  and  _15
REMARK    6  A    between atoms: _15  and  _16
REMARK    7  A    between atoms: _19  and  _21
REMARK    8  A    between atoms: _21  and  _22
REMARK    9  A    between atoms: _21  and  _24
REMARK   10  A    between atoms: _24  and  _25
REMARK   11  A    between atoms: _31  and  _33
REMARK   12  A    between atoms: _33  and  _34
REMARK   13  A    between atoms: _33  and  _36
REMARK   14  A    between atoms: _36  and  _37
REMARK   15  A    between atoms: _37  and  _38
REMARK   16  A    between atoms: _43  and  _45
REMARK   17  A    between atoms: _45  and  _46
REMARK   18  A    between atoms: _45  and  _48
REMARK   19  A    between atoms: _48  and  _49
REMARK   20  A    between atoms: _52  and  _54
REMARK   21  A    between atoms: _54  and  _55
REMARK   22  A    between atoms: _54  and  _57
REMARK   23  A    between atoms: _57  and  _58
REMARK   24  A    between atoms: _61  and  _63
REMARK   25  A    between atoms: _63  and  _64
REMARK   26  A    between atoms: _63  and  _66
REMARK   27  A    between atoms: _66  and  _67
REMARK   28  A    between atoms: _67  and  _68
REMARK   29  A    between atoms: _70  and  _72
REMARK   30  A    between atoms: _72  and  _73
REMARK   31  A    between atoms: _72  and  _75
REMARK   32  A    between atoms: _75  and  _76
REMARK   33  A    between atoms: _76  and  _77
REMARK   34  A    between atoms: _80  and  _82
REMARK   35  A    between atoms: _82  and  _83
REMARK   36  A    between atoms: _82  and  _85
REMARK   37  A    between atoms: _85  and  _86
REMARK   38  A    between atoms: _89  and  _91
REMARK   39  A    between atoms: _91  and  _92
REMARK   40  A    between atoms: _91  and  _94
REMARK   41  A    between atoms: _94  and  _95
REMARK   42  A    between atoms: _97  and  _99
REMARK   43  A    between atoms: _99  and  _100
REMARK   44  A    between atoms: _99  and  _102
REMARK   45  A    between atoms: _102  and  _103
REMARK   46  A    between atoms: _108  and  _110
REMARK   47  A    between atoms: _110  and  _111
REMARK   48  A    between atoms: _110  and  _113
REMARK   49  A    between atoms: _113  and  _114
REMARK   50  A    between atoms: _116  and  _118
REMARK   51  A    between atoms: _118  and  _119
REMARK   52  A    between atoms: _118  and  _121
REMARK   53  A    between atoms: _121  and  _122
REMARK   54  A    between atoms: _125  and  _127
REMARK   55  A    between atoms: _127  and  _128
REMARK   56  A    between atoms: _131  and  _133
REMARK   57  A    between atoms: _133  and  _134
REMARK   58  A    between atoms: _133  and  _136
REMARK   59  A    between atoms: _136  and  _137
REMARK   60  A    between atoms: _137  and  _138
REMARK   61  A    between atoms: _138  and  _139
REMARK   62  A    between atoms: _139  and  _140
REMARK   63  A    between atoms: _144  and  _146
REMARK   64  A    between atoms: _146  and  _147
REMARK   65  A    between atoms: _146  and  _149
REMARK   66  A    between atoms: _149  and  _150
REMARK   67  A    between atoms: _153  and  _155
REMARK   68  A    between atoms: _155  and  _156
REMARK   69  A    between atoms: _158  and  _160
REMARK   70  A    between atoms: _160  and  _161
REMARK   71  A    between atoms: _160  and  _163
REMARK   72  A    between atoms: _163  and  _164
REMARK   73  A    between atoms: _164  and  _165
REMARK   74  A    between atoms: _167  and  _169
REMARK   75  A    between atoms: _169  and  _170
REMARK   76  A    between atoms: _169  and  _172
REMARK   77  A    between atoms: _172  and  _173
REMARK   78  A    between atoms: _176  and  _178
REMARK   79  A    between atoms: _178  and  _179
REMARK   80  A    between atoms: _178  and  _181
REMARK   81  A    between atoms: _181  and  _182
REMARK   82  A    between atoms: _182  and  _183
REMARK   83  A    between atoms: _183  and  _184
REMARK   84  A    between atoms: _184  and  _185
REMARK   85  A    between atoms: _189  and  _191
REMARK   86  A    between atoms: _191  and  _192
REMARK   87  A    between atoms: _195  and  _197
REMARK   88  A    between atoms: _197  and  _198
REMARK   89  A    between atoms: _197  and  _200
REMARK   90  A    between atoms: _200  and  _201
REMARK   91  A    between atoms: _204  and  _206
REMARK   92  A    between atoms: _206  and  _207
REMARK   93  A    between atoms: _206  and  _209
REMARK   94  A    between atoms: _209  and  _210
REMARK   95  A    between atoms: _213  and  _215
REMARK   96  A    between atoms: _215  and  _216
REMARK   97  A    between atoms: _215  and  _218
REMARK   98  A    between atoms: _218  and  _219
REMARK   99  A    between atoms: _222  and  _224
REMARK  100  A    between atoms: _224  and  _225
REMARK  101  A    between atoms: _224  and  _227
REMARK  102  A    between atoms: _227  and  _228
REMARK  103  A    between atoms: _233  and  _235
REMARK  104  A    between atoms: _235  and  _236
REMARK  105  A    between atoms: _235  and  _238
REMARK  106  A    between atoms: _238  and  _239
REMARK  107  A    between atoms: _244  and  _246
REMARK  108  A    between atoms: _246  and  _247
REMARK  109  A    between atoms: _246  and  _249
REMARK  110  A    between atoms: _249  and  _250
REMARK  111  A    between atoms: _253  and  _255
REMARK  112  A    between atoms: _255  and  _256
REMARK  113  A    between atoms: _258  and  _260
REMARK  114  A    between atoms: _260  and  _261
REMARK  115  A    between atoms: _260  and  _263
REMARK  116  A    between atoms: _263  and  _264
REMARK  117  A    between atoms: _267  and  _269
REMARK  118  A    between atoms: _269  and  _270
REMARK  119  A    between atoms: _269  and  _272
REMARK  120  A    between atoms: _272  and  _273
REMARK  121  A    between atoms: _276  and  _278
REMARK  122  A    between atoms: _278  and  _279
REMARK  123  A    between atoms: _282  and  _284
REMARK  124  A    between atoms: _284  and  _285
REMARK  125  A    between atoms: _284  and  _287
REMARK  126  A    between atoms: _287  and  _288
REMARK  127  A    between atoms: _288  and  _289
REMARK  128  A    between atoms: _289  and  _290
REMARK  129  A    between atoms: _290  and  _291
REMARK  130  A    between atoms: _295  and  _297
REMARK  131  A    between atoms: _297  and  _298
REMARK  132  A    between atoms: _300  and  _302
REMARK  133  A    between atoms: _302  and  _303
REMARK  134  A    between atoms: _302  and  _305
REMARK  135  A    between atoms: _305  and  _306
REMARK  136  A    between atoms: _309  and  _311
REMARK  137  A    between atoms: _311  and  _312
REMARK  138  A    between atoms: _311  and  _314
REMARK  139  A    between atoms: _314  and  _315
REMARK  140  A    between atoms: _321  and  _323
REMARK  141  A    between atoms: _323  and  _324
REMARK  142  A    between atoms: _326  and  _328
REMARK  143  A    between atoms: _328  and  _329
REMARK  144  A    between atoms: _328  and  _331
REMARK  145  A    between atoms: _334  and  _336
REMARK  146  A    between atoms: _336  and  _337
REMARK  147  A    between atoms: _339  and  _341
REMARK  148  A    between atoms: _341  and  _342
REMARK  149  A    between atoms: _341  and  _344
REMARK  150  A    between atoms: _344  and  _345
REMARK  151  A    between atoms: _351  and  _353
REMARK  152  A    between atoms: _353  and  _354
REMARK  153  A    between atoms: _353  and  _356
REMARK  154  A    between atoms: _356  and  _357
REMARK  155  A    between atoms: _362  and  _363
REMARK  156  A    between atoms: _365  and  _367
REMARK  157  A    between atoms: _367  and  _368
REMARK  158  A    between atoms: _367  and  _370
REMARK  159  A    between atoms: _370  and  _371
REMARK  160  A    between atoms: _376  and  _377
REMARK  161  A    between atoms: _379  and  _381
REMARK  162  A    between atoms: _381  and  _382
REMARK  163  A    between atoms: _381  and  _384
REMARK  164  A    between atoms: _387  and  _389
REMARK  165  A    between atoms: _389  and  _390
REMARK  166  A    between atoms: _389  and  _392
REMARK  167  A    between atoms: _392  and  _393
REMARK  168  A    between atoms: _396  and  _398
REMARK  169  A    between atoms: _398  and  _399
REMARK  170  A    between atoms: _398  and  _401
REMARK  171  A    between atoms: _404  and  _406
REMARK  172  A    between atoms: _406  and  _407
REMARK  173  A    between atoms: _406  and  _409
REMARK  174  A    between atoms: _409  and  _410
REMARK  175  A    between atoms: _413  and  _415
REMARK  176  A    between atoms: _415  and  _416
REMARK  177  A    between atoms: _415  and  _418
REMARK  178  A    between atoms: _418  and  _419
REMARK  179  A    between atoms: _422  and  _424
REMARK  180  A    between atoms: _424  and  _425
REMARK  181  A    between atoms: _424  and  _427
REMARK  182  A    between atoms: _427  and  _428
REMARK  183  A    between atoms: _433  and  _435
REMARK  184  A    between atoms: _435  and  _436
REMARK  185  A    between atoms: _435  and  _438
REMARK  186  A    between atoms: _438  and  _439
REMARK  187  A    between atoms: _444  and  _445
REMARK  188  A    between atoms: _447  and  _449
REMARK  189  A    between atoms: _449  and  _450
REMARK  190  A    between atoms: _453  and  _455
REMARK  191  A    between atoms: _455  and  _456
REMARK  192  A    between atoms: _455  and  _458
REMARK  193  A    between atoms: _458  and  _459
REMARK  194  A    between atoms: _469  and  _471
REMARK  195  A    between atoms: _471  and  _472
REMARK  196  A    between atoms: _471  and  _474
REMARK  197  A    between atoms: _474  and  _475
REMARK  198  A    between atoms: _475  and  _476
REMARK  199  A    between atoms: _479  and  _481
REMARK  200  A    between atoms: _481  and  _482
REMARK  201  A    between atoms: _481  and  _484
REMARK  202  A    between atoms: _484  and  _485
REMARK  203  A    between atoms: _487  and  _489
REMARK  204  A    between atoms: _489  and  _490
REMARK  205  A    between atoms: _489  and  _492
REMARK  206  A    between atoms: _492  and  _493
REMARK  207  A    between atoms: _499  and  _501
REMARK  208  A    between atoms: _501  and  _502
REMARK  209  A    between atoms: _501  and  _504
REMARK  210  A    between atoms: _504  and  _505
REMARK  211  A    between atoms: _508  and  _510
REMARK  212  A    between atoms: _510  and  _511
REMARK  213  A    between atoms: _510  and  _513
REMARK  214  A    between atoms: _516  and  _518
REMARK  215  A    between atoms: _518  and  _519
REMARK  216  A    between atoms: _518  and  _521
REMARK  217  A    between atoms: _521  and  _522
REMARK  218  A    between atoms: _525  and  _527
REMARK  219  A    between atoms: _527  and  _528
REMARK  220  A    between atoms: _527  and  _530
REMARK  221  A    between atoms: _530  and  _531
REMARK  222  A    between atoms: _531  and  _532
REMARK  223  A    between atoms: _532  and  _533
REMARK  224  A    between atoms: _533  and  _534
REMARK  225  A    between atoms: _538  and  _540
REMARK  226  A    between atoms: _540  and  _541
REMARK  227  A    between atoms: _540  and  _543
REMARK  228  A    between atoms: _546  and  _548
REMARK  229  A    between atoms: _548  and  _549
REMARK  230  A    between atoms: _548  and  _551
REMARK  231  A    between atoms: _551  and  _552
REMARK                            x       y       z     vdW  Elec       q    Type
REMARK                         _______ _______ _______ _____ _____    ______ ____
ROOT
ATOM      1  CA  THR A   2       9.473  23.821  29.749  0.00  0.00    +0.176 C 
ENDROOT
BRANCH   1   4
ATOM      2  C   PHE A   1      11.028  22.994  28.124  0.00  0.00    +0.239 C 
ATOM      3  O   PHE A   1      11.945  23.032  28.953  0.00  0.00    -0.274 OA
ATOM      4  N   THR A   2       9.798  23.404  28.400  0.00  0.00    -0.295 N 
ATOM      5  H   THR A   2       9.073  23.426  27.655  0.00  0.00    +0.150 HD
BRANCH   2   6
ATOM      6  CA  PHE A   1      11.274  22.475  26.717  0.00  0.00    +0.149 C 
BRANCH   6   7
ATOM      7  N   PHE A   1      12.700  22.485  26.455  0.00  0.00    -0.238 NA
ATOM      8  H   PHE A   1      13.343  22.153  27.201  0.00  0.00    +0.142 HD
ENDBRANCH   6   7
BRANCH   6   9
ATOM      9  CB  PHE A   1      10.659  21.077  26.510  0.00  0.00    +0.053 C 
BRANCH   9  10
ATOM     10  CG  PHE A   1      11.172  20.014  27.449  0.00  0.00    -0.020 A 
ATOM     11  CD2 PHE A   1      10.479  19.703  28.630  0.00  0.00    -0.004 A 
ATOM     12  CE2 PHE A   1      10.930  18.709  29.479  0.00  0.00    -0.000 A 
ATOM     13  CZ  PHE A   1      12.087  18.002  29.169  0.00  0.00    -0.000 A 
ATOM     14  CE1 PHE A   1      12.785  18.296  28.005  0.00  0.00    -0.000 A 
ATOM     15  CD1 PHE A   1      12.324  19.299  27.147  0.00  0.00    -0.004 A 
ENDBRANCH   9  10
ENDBRANCH   6   9
ENDBRANCH   2   6
ENDBRANCH   1   4
BRANCH   1  16
ATOM     16  C   THR A   2       8.396  22.914  30.341  0.00  0.00    +0.243 C 
ATOM     17  N   VAL A   3       8.324  22.874  31.670  0.00  0.00    -0.298 N 
ATOM     18  H   VAL A   3       9.082  23.316  32.228  0.00  0.00    +0.150 HD
ATOM     19  O   THR A   2       7.635  22.285  29.600  0.00  0.00    -0.273 OA
BRANCH  17  20
ATOM     20  CA  VAL A   3       7.214  22.229  32.372  0.00  0.00    +0.137 C 
BRANCH  20  21
ATOM     21  CB  VAL A   3       7.594  20.834  32.912  0.00  0.00    +0.026 C 
ATOM     22  CG2 VAL A   3       6.411  20.201  33.640  0.00  0.00    +0.002 C 
ATOM     23  CG1 VAL A   3       8.058  19.904  31.798  0.00  0.00    +0.002 C 
ENDBRANCH  20  21
BRANCH  20  24
ATOM     24  C   VAL A   3       6.820  23.147  33.538  0.00  0.00    +0.227 C 
ATOM     25  O   VAL A   3       7.693  23.684  34.236  0.00  0.00    -0.286 OA
ENDBRANCH  20  24
ENDBRANCH  17  20
ENDBRANCH   1  16
BRANCH   1  26
ATOM     26  CB  THR A   2       8.961  25.261  29.784  0.00  0.00    +0.137 C 
ATOM     27  CG2 THR A   2      10.045  26.265  29.319  0.00  0.00    +0.034 C 
BRANCH  26  28
ATOM     28  OG1 THR A   2       7.805  25.376  28.950  0.00  0.00    -0.382 OA
ATOM     29  HG1 THR A   2       7.099  24.766  29.281  0.00  0.00    +0.210 HD
ENDBRANCH  26  28
ENDBRANCH   1  26
TORSDOF 11
REMARK  Name = ../refined-set-2016/4cwt/4cwt_pocket.pdb
REMARK  231 active torsions:
REMARK  status: ('A' for Active; 'I' for Inactive)
REMARK    1  A    between atoms: _1  and  _3
REMARK    2  A    between atoms: _3  and  _4
REMARK    3  A    between atoms: _3  and  _6
REMARK    4  A    between atoms: _6  and  _7
REMARK    5  A    between atoms: _13  and  _15
REMARK    6  A    between atoms: _15  and  _16
REMARK    7  A    between atoms: _19  and  _21
REMARK    8  A    between atoms: _21  and  _22
REMARK    9  A    between atoms: _21  and  _24
REMARK   10  A    between atoms: _24  and  _25
REMARK   11  A    between atoms: _31  and  _33
REMARK   12  A    between atoms: _33  and  _34
REMARK   13  A    between atoms: _33  and  _36
REMARK   14  A    between atoms: _36  and  _37
REMARK   15  A    between atoms: _37  and  _38
REMARK   16  A    between atoms: _43  and  _45
REMARK   17  A    between atoms: _45  and  _46
REMARK   18  A    between atoms: _45  and  _48
REMARK   19  A    between atoms: _48  and  _49
REMARK   20  A    between atoms: _52  and  _54
REMARK   21  A    between atoms: _54  and  _55
REMARK   22  A    between atoms: _54  and  _57
REMARK   23  A    between atoms: _57  and  _58
REMARK   24  A    between atoms: _61  and  _63
REMARK   25  A    between atoms: _63  and  _64
REMARK   26  A    between atoms: _63  and  _66
REMARK   27  A    between atoms: _66  and  _67
REMARK   28  A    between atoms: _67  and  _68
REMARK   29  A    between atoms: _70  and  _72
REMARK   30  A    between atoms: _72  and  _73
REMARK   31  A    between atoms: _72  and  _75
REMARK   32  A    between atoms: _75  and  _76
REMARK   33  A    between atoms: _76  and  _77
REMARK   34  A    between atoms: _80  and  _82
REMARK   35  A    between atoms: _82  and  _83
REMARK   36  A    between atoms: _82  and  _85
REMARK   37  A    between atoms: _85  and  _86
REMARK   38  A    between atoms: _89  and  _91
REMARK   39  A    between atoms: _91  and  _92
REMARK   40  A    between atoms: _91  and  _94
REMARK   41  A    between atoms: _94  and  _95
REMARK   42  A    between atoms: _97  and  _99
REMARK   43  A    between atoms: _99  and  _100
REMARK   44  A    between atoms: _99  and  _102
REMARK   45  A    between atoms: _102  and  _103
REMARK   46  A    between atoms: _108  and  _110
REMARK   47  A    between atoms: _110  and  _111
REMARK   48  A    between atoms: _110  and  _113
REMARK   49  A    between atoms: _113  and  _114
REMARK   50  A    between atoms: _116  and  _118
REMARK   51  A    between atoms: _118  and  _119
REMARK   52  A    between atoms: _118  and  _121
REMARK   53  A    between atoms: _121  and  _122
REMARK   54  A    between atoms: _125  and  _127
REMARK   55  A    between atoms: _127  and  _128
REMARK   56  A    between atoms: _131  and  _133
REMARK   57  A    between atoms: _133  and  _134
REMARK   58  A    between atoms: _133  and  _136
REMARK   59  A    between atoms: _136  and  _137
REMARK   60  A    between atoms: _137  and  _138
REMARK   61  A    between atoms: _138  and  _139
REMARK   62  A    between atoms: _139  and  _140
REMARK   63  A    between atoms: _144  and  _146
REMARK   64  A    between atoms: _146  and  _147
REMARK   65  A    between atoms: _146  and  _149
REMARK   66  A    between atoms: _149  and  _150
REMARK   67  A    between atoms: _153  and  _155
REMARK   68  A    between atoms: _155  and  _156
REMARK   69  A    between atoms: _158  and  _160
REMARK   70  A    between atoms: _160  and  _161
REMARK   71  A    between atoms: _160  and  _163
REMARK   72  A    between atoms: _163  and  _164
REMARK   73  A    between atoms: _164  and  _165
REMARK   74  A    between atoms: _167  and  _169
REMARK   75  A    between atoms: _169  and  _170
REMARK   76  A    between atoms: _169  and  _172
REMARK   77  A    between atoms: _172  and  _173
REMARK   78  A    between atoms: _176  and  _178
REMARK   79  A    between atoms: _178  and  _179
REMARK   80  A    between atoms: _178  and  _181
REMARK   81  A    between atoms: _181  and  _182
REMARK   82  A    between atoms: _182  and  _183
REMARK   83  A    between atoms: _183  and  _184
REMARK   84  A    between atoms: _184  and  _185
REMARK   85  A    between atoms: _189  and  _191
REMARK   86  A    between atoms: _191  and  _192
REMARK   87  A    between atoms: _195  and  _197
REMARK   88  A    between atoms: _197  and  _198
REMARK   89  A    between atoms: _197  and  _200
REMARK   90  A    between atoms: _200  and  _201
REMARK   91  A    between atoms: _204  and  _206
REMARK   92  A    between atoms: _206  and  _207
REMARK   93  A    between atoms: _206  and  _209
REMARK   94  A    between atoms: _209  and  _210
REMARK   95  A    between atoms: _213  and  _215
REMARK   96  A    between atoms: _215  and  _216
REMARK   97  A    between atoms: _215  and  _218
REMARK   98  A    between atoms: _218  and  _219
REMARK   99  A    between atoms: _222  and  _224
REMARK  100  A    between atoms: _224  and  _225
REMARK  101  A    between atoms: _224  and  _227
REMARK  102  A    between atoms: _227  and  _228
REMARK  103  A    between atoms: _233  and  _235
REMARK  104  A    between atoms: _235  and  _236
REMARK  105  A    between atoms: _235  and  _238
REMARK  106  A    between atoms: _238  and  _239
REMARK  107  A    between atoms: _244  and  _246
REMARK  108  A    between atoms: _246  and  _247
REMARK  109  A    between atoms: _246  and  _249
REMARK  110  A    between atoms: _249  and  _250
REMARK  111  A    between atoms: _253  and  _255
REMARK  112  A    between atoms: _255  and  _256
REMARK  113  A    between atoms: _258  and  _260
REMARK  114  A    between atoms: _260  and  _261
REMARK  115  A    between atoms: _260  and  _263
REMARK  116  A    between atoms: _263  and  _264
REMARK  117  A    between atoms: _267  and  _269
REMARK  118  A    between atoms: _269  and  _270
REMARK  119  A    between atoms: _269  and  _272
REMARK  120  A    between atoms: _272  and  _273
REMARK  121  A    between atoms: _276  and  _278
REMARK  122  A    between atoms: _278  and  _279
REMARK  123  A    between atoms: _282  and  _284
REMARK  124  A    between atoms: _284  and  _285
REMARK  125  A    between atoms: _284  and  _287
REMARK  126  A    between atoms: _287  and  _288
REMARK  127  A    between atoms: _288  and  _289
REMARK  128  A    between atoms: _289  and  _290
REMARK  129  A    between atoms: _290  and  _291
REMARK  130  A    between atoms: _295  and  _297
REMARK  131  A    between atoms: _297  and  _298
REMARK  132  A    between atoms: _300  and  _302
REMARK  133  A    between atoms: _302  and  _303
REMARK  134  A    between atoms: _302  and  _305
REMARK  135  A    between atoms: _305  and  _306
REMARK  136  A    between atoms: _309  and  _311
REMARK  137  A    between atoms: _311  and  _312
REMARK  138  A    between atoms: _311  and  _314
REMARK  139  A    between atoms: _314  and  _315
REMARK  140  A    between atoms: _321  and  _323
REMARK  141  A    between atoms: _323  and  _324
REMARK  142  A    between atoms: _326  and  _328
REMARK  143  A    between atoms: _328  and  _329
REMARK  144  A    between atoms: _328  and  _331
REMARK  145  A    between atoms: _334  and  _336
REMARK  146  A    between atoms: _336  and  _337
REMARK  147  A    between atoms: _339  and  _341
REMARK  148  A    between atoms: _341  and  _342
REMARK  149  A    between atoms: _341  and  _344
REMARK  150  A    between atoms: _344  and  _345
REMARK  151  A    between atoms: _351  and  _353
REMARK  152  A    between atoms: _353  and  _354
REMARK  153  A    between atoms: _353  and  _356
REMARK  154  A    between atoms: _356  and  _357
REMARK  155  A    between atoms: _362  and  _363
REMARK  156  A    between atoms: _365  and  _367
REMARK  157  A    between atoms: _367  and  _368
REMARK  158  A    between atoms: _367  and  _370
REMARK  159  A    between atoms: _370  and  _371
REMARK  160  A    between atoms: _376  and  _377
REMARK  161  A    between atoms: _379  and  _381
REMARK  162  A    between atoms: _381  and  _382
REMARK  163  A    between atoms: _381  and  _384
REMARK  164  A    between atoms: _387  and  _389
REMARK  165  A    between atoms: _389  and  _390
REMARK  166  A    between atoms: _389  and  _392
REMARK  167  A    between atoms: _392  and  _393
REMARK  168  A    between atoms: _396  and  _398
REMARK  169  A    between atoms: _398  and  _399
REMARK  170  A    between atoms: _398  and  _401
REMARK  171  A    between atoms: _404  and  _406
REMARK  172  A    between atoms: _406  and  _407
REMARK  173  A    between atoms: _406  and  _409
REMARK  174  A    between atoms: _409  and  _410
REMARK  175  A    between atoms: _413  and  _415
REMARK  176  A    between atoms: _415  and  _416
REMARK  177  A    between atoms: _415  and  _418
REMARK  178  A    between atoms: _418  and  _419
REMARK  179  A    between atoms: _422  and  _424
REMARK  180  A    between atoms: _424  and  _425
REMARK  181  A    between atoms: _424  and  _427
REMARK  182  A    between atoms: _427  and  _428
REMARK  183  A    between atoms: _433  and  _435
REMARK  184  A    between atoms: _435  and  _436
REMARK  185  A    between atoms: _435  and  _438
REMARK  186  A    between atoms: _438  and  _439
REMARK  187  A    between atoms: _444  and  _445
REMARK  188  A    between atoms: _447  and  _449
REMARK  189  A    between atoms: _449  and  _450
REMARK  190  A    between atoms: _453  and  _455
REMARK  191  A    between atoms: _455  and  _456
REMARK  192  A    between atoms: _455  and  _458
REMARK  193  A    between atoms: _458  and  _459
REMARK  194  A    between atoms: _469  and  _471
REMARK  195  A    between atoms: _471  and  _472
REMARK  196  A    between atoms: _471  and  _474
REMARK  197  A    between atoms: _474  and  _475
REMARK  198  A    between atoms: _475  and  _476
REMARK  199  A    between atoms: _479  and  _481
REMARK  200  A    between atoms: _481  and  _482
REMARK  201  A    between atoms: _481  and  _484
REMARK  202  A    between atoms: _484  and  _485
REMARK  203  A    between atoms: _487  and  _489
REMARK  204  A    between atoms: _489  and  _490
REMARK  205  A    between atoms: _489  and  _492
REMARK  206  A    between atoms: _492  and  _493
REMARK  207  A    between atoms: _499  and  _501
REMARK  208  A    between atoms: _501  and  _502
REMARK  209  A    between atoms: _501  and  _504
REMARK  210  A    between atoms: _504  and  _505
REMARK  211  A    between atoms: _508  and  _510
REMARK  212  A    between atoms: _510  and  _511
REMARK  213  A    between atoms: _510  and  _513
REMARK  214  A    between atoms: _516  and  _518
REMARK  215  A    between atoms: _518  and  _519
REMARK  216  A    between atoms: _518  and  _521
REMARK  217  A    between atoms: _521  and  _522
REMARK  218  A    between atoms: _525  and  _527
REMARK  219  A    between atoms: _527  and  _528
REMARK  220  A    between atoms: _527  and  _530
REMARK  221  A    between atoms: _530  and  _531
REMARK  222  A    between atoms: _531  and  _532
REMARK  223  A    between atoms: _532  and  _533
REMARK  224  A    between atoms: _533  and  _534
REMARK  225  A    between atoms: _538  and  _540
REMARK  226  A    between atoms: _540  and  _541
REMARK  227  A    between atoms: _540  and  _543
REMARK  228  A    between atoms: _546  and  _548
REMARK  229  A    between atoms: _548  and  _549
REMARK  230  A    between atoms: _548  and  _551
REMARK  231  A    between atoms: _551  and  _552
REMARK                            x       y       z     vdW  Elec       q    Type
REMARK                         _______ _______ _______ _____ _____    ______ ____
ROOT
ATOM      1  CA  LYS A   2      -4.576  18.141  25.264  0.00  0.00    +0.149 C 
ENDROOT
BRANCH   1   3
ATOM      2  C   THR A   1      -4.623  15.913  26.251  0.00  0.00    +0.241 C 
ATOM      3  N   LYS A   2      -4.149  17.152  26.210  0.00  0.00    -0.297 N 
ATOM      4  H   LYS A   2      -3.424  17.422  26.906  0.00  0.00    +0.150 HD
ATOM      5  O   THR A   1      -5.476  15.467  25.467  0.00  0.00    -0.274 OA
BRANCH   2   6
ATOM      6  CA  THR A   1      -4.025  15.046  27.338  0.00  0.00    +0.172 C 
BRANCH   6   7
ATOM      7  CB  THR A   1      -2.976  14.096  26.713  0.00  0.00    +0.135 C 
ATOM      8  CG2 THR A   1      -1.930  14.870  25.899  0.00  0.00    +0.034 C 
BRANCH   7   9
ATOM      9  OG1 THR A   1      -2.332  13.351  27.749  0.00  0.00    -0.383 OA
ATOM     10  HG1 THR A   1      -1.661  12.743  27.349  0.00  0.00    +0.210 HD
ENDBRANCH   7   9
ENDBRANCH   6   7
BRANCH   6  11
ATOM     11  N   THR A   1      -5.084  14.288  28.006  0.00  0.00    -0.236 NA
ATOM     12  H   THR A   1      -5.874  13.927  27.434  0.00  0.00    +0.142 HD
ENDBRANCH   6  11
ENDBRANCH   2   6
ENDBRANCH   1   3
BRANCH   1  13
ATOM     13  C   LYS A   2      -3.322  18.677  24.572  0.00  0.00    +0.241 C 
ATOM     14  O   LYS A   2      -2.462  19.295  25.205  0.00  0.00    -0.273 OA
ATOM     15  N   VAL A   3      -3.196  18.380  23.287  0.00  0.00    -0.297 N 
ATOM     16  H   VAL A   3      -3.934  17.807  22.830  0.00  0.00    +0.150 HD
BRANCH  15  17
ATOM     17  CA  VAL A   3      -2.053  18.830  22.485  0.00  0.00    +0.149 C 
BRANCH  17  18
ATOM     18  C   VAL A   3      -2.470  20.054  21.685  0.00  0.00    +0.241 C 
ATOM     19  N   ILE A   4      -1.841  21.195  21.963  0.00  0.00    -0.298 N 
ATOM     20  H   ILE A   4      -1.088  21.203  22.681  0.00  0.00    +0.150 HD
ATOM     21  O   VAL A   3      -3.330  19.958  20.802  0.00  0.00    -0.273 OA
BRANCH  19  22
ATOM     22  CA  ILE A   4      -2.193  22.438  21.274  0.00  0.00    +0.137 C 
BRANCH  22  23
ATOM     23  C   ILE A   4      -1.089  22.741  20.269  0.00  0.00    +0.227 C 
ATOM     24  O   ILE A   4       0.048  23.025  20.655  0.00  0.00    -0.286 OA
ENDBRANCH  22  23
BRANCH  22  25
ATOM     25  CB  ILE A   4      -2.372  23.612  22.260  0.00  0.00    +0.026 C 
ATOM     26  CG2 ILE A   4      -2.842  24.873  21.531  0.00  0.00    +0.002 C 
BRANCH  25  27
ATOM     27  CG1 ILE A   4      -3.349  23.214  23.376  0.00  0.00    +0.002 C 
ATOM     28  CD1 ILE A   4      -3.233  24.083  24.609  0.00  0.00    +0.000 C 
ENDBRANCH  25  27
ENDBRANCH  22  25
ENDBRANCH  19  22
ENDBRANCH  17  18
BRANCH  17  29
ATOM     29  CB  VAL A   3      -1.561  17.727  21.520  0.00  0.00    +0.027 C 
ATOM     30  CG2 VAL A   3      -1.147  16.475  22.291  0.00  0.00    +0.002 C 
ATOM     31  CG1 VAL A   3      -0.393  18.234  20.685  0.00  0.00    +0.002 C 
ENDBRANCH  17  29
ENDBRANCH  15  17
ENDBRANCH   1  13
BRANCH   1  32
ATOM     32  CB  LYS A   2      -5.306  19.255  26.017  0.00  0.00    +0.029 C 
BRANCH  32  33
ATOM     33  CG  LYS A   2      -5.676  20.465  25.170  0.00  0.00    +0.000 C 
BRANCH  33  34
ATOM     34  CD  LYS A   2      -6.820  21.241  25.827  0.00  0.00    -0.024 C 
BRANCH  34  35
ATOM     35  CE  LYS A   2      -6.332  22.194  26.911  0.00  0.00    -0.086 C 
BRANCH  35  36
ATOM     36  NZ  LYS A   2      -7.463  22.868  27.639  0.00  0.00    +0.380 N 
ATOM     37  HZ1 LYS A   2      -7.076  23.505  28.365  0.00  0.00    -0.089 HD
ATOM     38  HZ2 LYS A   2      -8.061  22.147  28.091  0.00  0.00    -0.089 HD
ATOM     39  HZ3 LYS A   2      -8.031  23.416  26.962  0.00  0.00    -0.089 HD
ENDBRANCH  35  36
ENDBRANCH  34  35
ENDBRANCH  33  34
ENDBRANCH  32  33
ENDBRANCH   1  32
TORSDOF 18
REMARK  Name = ../refined-set-2016/4cwt/4cwt_pocket.pdb
REMARK  231 active torsions:
REMARK  status: ('A' for Active; 'I' for Inactive)
REMARK    1  A    between atoms: _1  and  _3
REMARK    2  A    between atoms: _3  and  _4
REMARK    3  A    between atoms: _3  and  _6
REMARK    4  A    between atoms: _6  and  _7
REMARK    5  A    between atoms: _13  and  _15
REMARK    6  A    between atoms: _15  and  _16
REMARK    7  A    between atoms: _19  and  _21
REMARK    8  A    between atoms: _21  and  _22
REMARK    9  A    between atoms: _21  and  _24
REMARK   10  A    between atoms: _24  and  _25
REMARK   11  A    between atoms: _31  and  _33
REMARK   12  A    between atoms: _33  and  _34
REMARK   13  A    between atoms: _33  and  _36
REMARK   14  A    between atoms: _36  and  _37
REMARK   15  A    between atoms: _37  and  _38
REMARK   16  A    between atoms: _43  and  _45
REMARK   17  A    between atoms: _45  and  _46
REMARK   18  A    between atoms: _45  and  _48
REMARK   19  A    between atoms: _48  and  _49
REMARK   20  A    between atoms: _52  and  _54
REMARK   21  A    between atoms: _54  and  _55
REMARK   22  A    between atoms: _54  and  _57
REMARK   23  A    between atoms: _57  and  _58
REMARK   24  A    between atoms: _61  and  _63
REMARK   25  A    between atoms: _63  and  _64
REMARK   26  A    between atoms: _63  and  _66
REMARK   27  A    between atoms: _66  and  _67
REMARK   28  A    between atoms: _67  and  _68
REMARK   29  A    between atoms: _70  and  _72
REMARK   30  A    between atoms: _72  and  _73
REMARK   31  A    between atoms: _72  and  _75
REMARK   32  A    between atoms: _75  and  _76
REMARK   33  A    between atoms: _76  and  _77
REMARK   34  A    between atoms: _80  and  _82
REMARK   35  A    between atoms: _82  and  _83
REMARK   36  A    between atoms: _82  and  _85
REMARK   37  A    between atoms: _85  and  _86
REMARK   38  A    between atoms: _89  and  _91
REMARK   39  A    between atoms: _91  and  _92
REMARK   40  A    between atoms: _91  and  _94
REMARK   41  A    between atoms: _94  and  _95
REMARK   42  A    between atoms: _97  and  _99
REMARK   43  A    between atoms: _99  and  _100
REMARK   44  A    between atoms: _99  and  _102
REMARK   45  A    between atoms: _102  and  _103
REMARK   46  A    between atoms: _108  and  _110
REMARK   47  A    between atoms: _110  and  _111
REMARK   48  A    between atoms: _110  and  _113
REMARK   49  A    between atoms: _113  and  _114
REMARK   50  A    between atoms: _116  and  _118
REMARK   51  A    between atoms: _118  and  _119
REMARK   52  A    between atoms: _118  and  _121
REMARK   53  A    between atoms: _121  and  _122
REMARK   54  A    between atoms: _125  and  _127
REMARK   55  A    between atoms: _127  and  _128
REMARK   56  A    between atoms: _131  and  _133
REMARK   57  A    between atoms: _133  and  _134
REMARK   58  A    between atoms: _133  and  _136
REMARK   59  A    between atoms: _136  and  _137
REMARK   60  A    between atoms: _137  and  _138
REMARK   61  A    between atoms: _138  and  _139
REMARK   62  A    between atoms: _139  and  _140
REMARK   63  A    between atoms: _144  and  _146
REMARK   64  A    between atoms: _146  and  _147
REMARK   65  A    between atoms: _146  and  _149
REMARK   66  A    between atoms: _149  and  _150
REMARK   67  A    between atoms: _153  and  _155
REMARK   68  A    between atoms: _155  and  _156
REMARK   69  A    between atoms: _158  and  _160
REMARK   70  A    between atoms: _160  and  _161
REMARK   71  A    between atoms: _160  and  _163
REMARK   72  A    between atoms: _163  and  _164
REMARK   73  A    between atoms: _164  and  _165
REMARK   74  A    between atoms: _167  and  _169
REMARK   75  A    between atoms: _169  and  _170
REMARK   76  A    between atoms: _169  and  _172
REMARK   77  A    between atoms: _172  and  _173
REMARK   78  A    between atoms: _176  and  _178
REMARK   79  A    between atoms: _178  and  _179
REMARK   80  A    between atoms: _178  and  _181
REMARK   81  A    between atoms: _181  and  _182
REMARK   82  A    between atoms: _182  and  _183
REMARK   83  A    between atoms: _183  and  _184
REMARK   84  A    between atoms: _184  and  _185
REMARK   85  A    between atoms: _189  and  _191
REMARK   86  A    between atoms: _191  and  _192
REMARK   87  A    between atoms: _195  and  _197
REMARK   88  A    between atoms: _197  and  _198
REMARK   89  A    between atoms: _197  and  _200
REMARK   90  A    between atoms: _200  and  _201
REMARK   91  A    between atoms: _204  and  _206
REMARK   92  A    between atoms: _206  and  _207
REMARK   93  A    between atoms: _206  and  _209
REMARK   94  A    between atoms: _209  and  _210
REMARK   95  A    between atoms: _213  and  _215
REMARK   96  A    between atoms: _215  and  _216
REMARK   97  A    between atoms: _215  and  _218
REMARK   98  A    between atoms: _218  and  _219
REMARK   99  A    between atoms: _222  and  _224
REMARK  100  A    between atoms: _224  and  _225
REMARK  101  A    between atoms: _224  and  _227
REMARK  102  A    between atoms: _227  and  _228
REMARK  103  A    between atoms: _233  and  _235
REMARK  104  A    between atoms: _235  and  _236
REMARK  105  A    between atoms: _235  and  _238
REMARK  106  A    between atoms: _238  and  _239
REMARK  107  A    between atoms: _244  and  _246
REMARK  108  A    between atoms: _246  and  _247
REMARK  109  A    between atoms: _246  and  _249
REMARK  110  A    between atoms: _249  and  _250
REMARK  111  A    between atoms: _253  and  _255
REMARK  112  A    between atoms: _255  and  _256
REMARK  113  A    between atoms: _258  and  _260
REMARK  114  A    between atoms: _260  and  _261
REMARK  115  A    between atoms: _260  and  _263
REMARK  116  A    between atoms: _263  and  _264
REMARK  117  A    between atoms: _267  and  _269
REMARK  118  A    between atoms: _269  and  _270
REMARK  119  A    between atoms: _269  and  _272
REMARK  120  A    between atoms: _272  and  _273
REMARK  121  A    between atoms: _276  and  _278
REMARK  122  A    between atoms: _278  and  _279
REMARK  123  A    between atoms: _282  and  _284
REMARK  124  A    between atoms: _284  and  _285
REMARK  125  A    between atoms: _284  and  _287
REMARK  126  A    between atoms: _287  and  _288
REMARK  127  A    between atoms: _288  and  _289
REMARK  128  A    between atoms: _289  and  _290
REMARK  129  A    between atoms: _290  and  _291
REMARK  130  A    between atoms: _295  and  _297
REMARK  131  A    between atoms: _297  and  _298
REMARK  132  A    between atoms: _300  and  _302
REMARK  133  A    between atoms: _302  and  _303
REMARK  134  A    between atoms: _302  and  _305
REMARK  135  A    between atoms: _305  and  _306
REMARK  136  A    between atoms: _309  and  _311
REMARK  137  A    between atoms: _311  and  _312
REMARK  138  A    between atoms: _311  and  _314
REMARK  139  A    between atoms: _314  and  _315
REMARK  140  A    between atoms: _321  and  _323
REMARK  141  A    between atoms: _323  and  _324
REMARK  142  A    between atoms: _326  and  _328
REMARK  143  A    between atoms: _328  and  _329
REMARK  144  A    between atoms: _328  and  _331
REMARK  145  A    between atoms: _334  and  _336
REMARK  146  A    between atoms: _336  and  _337
REMARK  147  A    between atoms: _339  and  _341
REMARK  148  A    between atoms: _341  and  _342
REMARK  149  A    between atoms: _341  and  _344
REMARK  150  A    between atoms: _344  and  _345
REMARK  151  A    between atoms: _351  and  _353
REMARK  152  A    between atoms: _353  and  _354
REMARK  153  A    between atoms: _353  and  _356
REMARK  154  A    between atoms: _356  and  _357
REMARK  155  A    between atoms: _362  and  _363
REMARK  156  A    between atoms: _365  and  _367
REMARK  157  A    between atoms: _367  and  _368
REMARK  158  A    between atoms: _367  and  _370
REMARK  159  A    between atoms: _370  and  _371
REMARK  160  A    between atoms: _376  and  _377
REMARK  161  A    between atoms: _379  and  _381
REMARK  162  A    between atoms: _381  and  _382
REMARK  163  A    between atoms: _381  and  _384
REMARK  164  A    between atoms: _387  and  _389
REMARK  165  A    between atoms: _389  and  _390
REMARK  166  A    between atoms: _389  and  _392
REMARK  167  A    between atoms: _392  and  _393
REMARK  168  A    between atoms: _396  and  _398
REMARK  169  A    between atoms: _398  and  _399
REMARK  170  A    between atoms: _398  and  _401
REMARK  171  A    between atoms: _404  and  _406
REMARK  172  A    between atoms: _406  and  _407
REMARK  173  A    between atoms: _406  and  _409
REMARK  174  A    between atoms: _409  and  _410
REMARK  175  A    between atoms: _413  and  _415
REMARK  176  A    between atoms: _415  and  _416
REMARK  177  A    between atoms: _415  and  _418
REMARK  178  A    between atoms: _418  and  _419
REMARK  179  A    between atoms: _422  and  _424
REMARK  180  A    between atoms: _424  and  _425
REMARK  181  A    between atoms: _424  and  _427
REMARK  182  A    between atoms: _427  and  _428
REMARK  183  A    between atoms: _433  and  _435
REMARK  184  A    between atoms: _435  and  _436
REMARK  185  A    between atoms: _435  and  _438
REMARK  186  A    between atoms: _438  and  _439
REMARK  187  A    between atoms: _444  and  _445
REMARK  188  A    between atoms: _447  and  _449
REMARK  189  A    between atoms: _449  and  _450
REMARK  190  A    between atoms: _453  and  _455
REMARK  191  A    between atoms: _455  and  _456
REMARK  192  A    between atoms: _455  and  _458
REMARK  193  A    between atoms: _458  and  _459
REMARK  194  A    between atoms: _469  and  _471
REMARK  195  A    between atoms: _471  and  _472
REMARK  196  A    between atoms: _471  and  _474
REMARK  197  A    between atoms: _474  and  _475
REMARK  198  A    between atoms: _475  and  _476
REMARK  199  A    between atoms: _479  and  _481
REMARK  200  A    between atoms: _481  and  _482
REMARK  201  A    between atoms: _481  and  _484
REMARK  202  A    between atoms: _484  and  _485
REMARK  203  A    between atoms: _487  and  _489
REMARK  204  A    between atoms: _489  and  _490
REMARK  205  A    between atoms: _489  and  _492
REMARK  206  A    between atoms: _492  and  _493
REMARK  207  A    between atoms: _499  and  _501
REMARK  208  A    between atoms: _501  and  _502
REMARK  209  A    between atoms: _501  and  _504
REMARK  210  A    between atoms: _504  and  _505
REMARK  211  A    between atoms: _508  and  _510
REMARK  212  A    between atoms: _510  and  _511
REMARK  213  A    between atoms: _510  and  _513
REMARK  214  A    between atoms: _516  and  _518
REMARK  215  A    between atoms: _518  and  _519
REMARK  216  A    between atoms: _518  and  _521
REMARK  217  A    between atoms: _521  and  _522
REMARK  218  A    between atoms: _525  and  _527
REMARK  219  A    between atoms: _527  and  _528
REMARK  220  A    between atoms: _527  and  _530
REMARK  221  A    between atoms: _530  and  _531
REMARK  222  A    between atoms: _531  and  _532
REMARK  223  A    between atoms: _532  and  _533
REMARK  224  A    between atoms: _533  and  _534
REMARK  225  A    between atoms: _538  and  _540
REMARK  226  A    between atoms: _540  and  _541
REMARK  227  A    between atoms: _540  and  _543
REMARK  228  A    between atoms: _546  and  _548
REMARK  229  A    between atoms: _548  and  _549
REMARK  230  A    between atoms: _548  and  _551
REMARK  231  A    between atoms: _551  and  _552
REMARK                            x       y       z     vdW  Elec       q    Type
REMARK                         _______ _______ _______ _____ _____    ______ ____
ROOT
ATOM      1  O   HOH     1      14.983  14.563  26.371  0.00  0.00    +0.000 OA
ENDROOT
TORSDOF 0
REMARK  Name = ../refined-set-2016/4cwt/4cwt_pocket.pdb
REMARK  231 active torsions:
REMARK  status: ('A' for Active; 'I' for Inactive)
REMARK    1  A    between atoms: _1  and  _3
REMARK    2  A    between atoms: _3  and  _4
REMARK    3  A    between atoms: _3  and  _6
REMARK    4  A    between atoms: _6  and  _7
REMARK    5  A    between atoms: _13  and  _15
REMARK    6  A    between atoms: _15  and  _16
REMARK    7  A    between atoms: _19  and  _21
REMARK    8  A    between atoms: _21  and  _22
REMARK    9  A    between atoms: _21  and  _24
REMARK   10  A    between atoms: _24  and  _25
REMARK   11  A    between atoms: _31  and  _33
REMARK   12  A    between atoms: _33  and  _34
REMARK   13  A    between atoms: _33  and  _36
REMARK   14  A    between atoms: _36  and  _37
REMARK   15  A    between atoms: _37  and  _38
REMARK   16  A    between atoms: _43  and  _45
REMARK   17  A    between atoms: _45  and  _46
REMARK   18  A    between atoms: _45  and  _48
REMARK   19  A    between atoms: _48  and  _49
REMARK   20  A    between atoms: _52  and  _54
REMARK   21  A    between atoms: _54  and  _55
REMARK   22  A    between atoms: _54  and  _57
REMARK   23  A    between atoms: _57  and  _58
REMARK   24  A    between atoms: _61  and  _63
REMARK   25  A    between atoms: _63  and  _64
REMARK   26  A    between atoms: _63  and  _66
REMARK   27  A    between atoms: _66  and  _67
REMARK   28  A    between atoms: _67  and  _68
REMARK   29  A    between atoms: _70  and  _72
REMARK   30  A    between atoms: _72  and  _73
REMARK   31  A    between atoms: _72  and  _75
REMARK   32  A    between atoms: _75  and  _76
REMARK   33  A    between atoms: _76  and  _77
REMARK   34  A    between atoms: _80  and  _82
REMARK   35  A    between atoms: _82  and  _83
REMARK   36  A    between atoms: _82  and  _85
REMARK   37  A    between atoms: _85  and  _86
REMARK   38  A    between atoms: _89  and  _91
REMARK   39  A    between atoms: _91  and  _92
REMARK   40  A    between atoms: _91  and  _94
REMARK   41  A    between atoms: _94  and  _95
REMARK   42  A    between atoms: _97  and  _99
REMARK   43  A    between atoms: _99  and  _100
REMARK   44  A    between atoms: _99  and  _102
REMARK   45  A    between atoms: _102  and  _103
REMARK   46  A    between atoms: _108  and  _110
REMARK   47  A    between atoms: _110  and  _111
REMARK   48  A    between atoms: _110  and  _113
REMARK   49  A    between atoms: _113  and  _114
REMARK   50  A    between atoms: _116  and  _118
REMARK   51  A    between atoms: _118  and  _119
REMARK   52  A    between atoms: _118  and  _121
REMARK   53  A    between atoms: _121  and  _122
REMARK   54  A    between atoms: _125  and  _127
REMARK   55  A    between atoms: _127  and  _128
REMARK   56  A    between atoms: _131  and  _133
REMARK   57  A    between atoms: _133  and  _134
REMARK   58  A    between atoms: _133  and  _136
REMARK   59  A    between atoms: _136  and  _137
REMARK   60  A    between atoms: _137  and  _138
REMARK   61  A    between atoms: _138  and  _139
REMARK   62  A    between atoms: _139  and  _140
REMARK   63  A    between atoms: _144  and  _146
REMARK   64  A    between atoms: _146  and  _147
REMARK   65  A    between atoms: _146  and  _149
REMARK   66  A    between atoms: _149  and  _150
REMARK   67  A    between atoms: _153  and  _155
REMARK   68  A    between atoms: _155  and  _156
REMARK   69  A    between atoms: _158  and  _160
REMARK   70  A    between atoms: _160  and  _161
REMARK   71  A    between atoms: _160  and  _163
REMARK   72  A    between atoms: _163  and  _164
REMARK   73  A    between atoms: _164  and  _165
REMARK   74  A    between atoms: _167  and  _169
REMARK   75  A    between atoms: _169  and  _170
REMARK   76  A    between atoms: _169  and  _172
REMARK   77  A    between atoms: _172  and  _173
REMARK   78  A    between atoms: _176  and  _178
REMARK   79  A    between atoms: _178  and  _179
REMARK   80  A    between atoms: _178  and  _181
REMARK   81  A    between atoms: _181  and  _182
REMARK   82  A    between atoms: _182  and  _183
REMARK   83  A    between atoms: _183  and  _184
REMARK   84  A    between atoms: _184  and  _185
REMARK   85  A    between atoms: _189  and  _191
REMARK   86  A    between atoms: _191  and  _192
REMARK   87  A    between atoms: _195  and  _197
REMARK   88  A    between atoms: _197  and  _198
REMARK   89  A    between atoms: _197  and  _200
REMARK   90  A    between atoms: _200  and  _201
REMARK   91  A    between atoms: _204  and  _206
REMARK   92  A    between atoms: _206  and  _207
REMARK   93  A    between atoms: _206  and  _209
REMARK   94  A    between atoms: _209  and  _210
REMARK   95  A    between atoms: _213  and  _215
REMARK   96  A    between atoms: _215  and  _216
REMARK   97  A    between atoms: _215  and  _218
REMARK   98  A    between atoms: _218  and  _219
REMARK   99  A    between atoms: _222  and  _224
REMARK  100  A    between atoms: _224  and  _225
REMARK  101  A    between atoms: _224  and  _227
REMARK  102  A    between atoms: _227  and  _228
REMARK  103  A    between atoms: _233  and  _235
REMARK  104  A    between atoms: _235  and  _236
REMARK  105  A    between atoms: _235  and  _238
REMARK  106  A    between atoms: _238  and  _239
REMARK  107  A    between atoms: _244  and  _246
REMARK  108  A    between atoms: _246  and  _247
REMARK  109  A    between atoms: _246  and  _249
REMARK  110  A    between atoms: _249  and  _250
REMARK  111  A    between atoms: _253  and  _255
REMARK  112  A    between atoms: _255  and  _256
REMARK  113  A    between atoms: _258  and  _260
REMARK  114  A    between atoms: _260  and  _261
REMARK  115  A    between atoms: _260  and  _263
REMARK  116  A    between atoms: _263  and  _264
REMARK  117  A    between atoms: _267  and  _269
REMARK  118  A    between atoms: _269  and  _270
REMARK  119  A    between atoms: _269  and  _272
REMARK  120  A    between atoms: _272  and  _273
REMARK  121  A    between atoms: _276  and  _278
REMARK  122  A    between atoms: _278  and  _279
REMARK  123  A    between atoms: _282  and  _284
REMARK  124  A    between atoms: _284  and  _285
REMARK  125  A    between atoms: _284  and  _287
REMARK  126  A    between atoms: _287  and  _288
REMARK  127  A    between atoms: _288  and  _289
REMARK  128  A    between atoms: _289  and  _290
REMARK  129  A    between atoms: _290  and  _291
REMARK  130  A    between atoms: _295  and  _297
REMARK  131  A    between atoms: _297  and  _298
REMARK  132  A    between atoms: _300  and  _302
REMARK  133  A    between atoms: _302  and  _303
REMARK  134  A    between atoms: _302  and  _305
REMARK  135  A    between atoms: _305  and  _306
REMARK  136  A    between atoms: _309  and  _311
REMARK  137  A    between atoms: _311  and  _312
REMARK  138  A    between atoms: _311  and  _314
REMARK  139  A    between atoms: _314  and  _315
REMARK  140  A    between atoms: _321  and  _323
REMARK  141  A    between atoms: _323  and  _324
REMARK  142  A    between atoms: _326  and  _328
REMARK  143  A    between atoms: _328  and  _329
REMARK  144  A    between atoms: _328  and  _331
REMARK  145  A    between atoms: _334  and  _336
REMARK  146  A    between atoms: _336  and  _337
REMARK  147  A    between atoms: _339  and  _341
REMARK  148  A    between atoms: _341  and  _342
REMARK  149  A    between atoms: _341  and  _344
REMARK  150  A    between atoms: _344  and  _345
REMARK  151  A    between atoms: _351  and  _353
REMARK  152  A    between atoms: _353  and  _354
REMARK  153  A    between atoms: _353  and  _356
REMARK  154  A    between atoms: _356  and  _357
REMARK  155  A    between atoms: _362  and  _363
REMARK  156  A    between atoms: _365  and  _367
REMARK  157  A    between atoms: _367  and  _368
REMARK  158  A    between atoms: _367  and  _370
REMARK  159  A    between atoms: _370  and  _371
REMARK  160  A    between atoms: _376  and  _377
REMARK  161  A    between atoms: _379  and  _381
REMARK  162  A    between atoms: _381  and  _382
REMARK  163  A    between atoms: _381  and  _384
REMARK  164  A    between atoms: _387  and  _389
REMARK  165  A    between atoms: _389  and  _390
REMARK  166  A    between atoms: _389  and  _392
REMARK  167  A    between atoms: _392  and  _393
REMARK  168  A    between atoms: _396  and  _398
REMARK  169  A    between atoms: _398  and  _399
REMARK  170  A    between atoms: _398  and  _401
REMARK  171  A    between atoms: _404  and  _406
REMARK  172  A    between atoms: _406  and  _407
REMARK  173  A    between atoms: _406  and  _409
REMARK  174  A    between atoms: _409  and  _410
REMARK  175  A    between atoms: _413  and  _415
REMARK  176  A    between atoms: _415  and  _416
REMARK  177  A    between atoms: _415  and  _418
REMARK  178  A    between atoms: _418  and  _419
REMARK  179  A    between atoms: _422  and  _424
REMARK  180  A    between atoms: _424  and  _425
REMARK  181  A    between atoms: _424  and  _427
REMARK  182  A    between atoms: _427  and  _428
REMARK  183  A    between atoms: _433  and  _435
REMARK  184  A    between atoms: _435  and  _436
REMARK  185  A    between atoms: _435  and  _438
REMARK  186  A    between atoms: _438  and  _439
REMARK  187  A    between atoms: _444  and  _445
REMARK  188  A    between atoms: _447  and  _449
REMARK  189  A    between atoms: _449  and  _450
REMARK  190  A    between atoms: _453  and  _455
REMARK  191  A    between atoms: _455  and  _456
REMARK  192  A    between atoms: _455  and  _458
REMARK  193  A    between atoms: _458  and  _459
REMARK  194  A    between atoms: _469  and  _471
REMARK  195  A    between atoms: _471  and  _472
REMARK  196  A    between atoms: _471  and  _474
REMARK  197  A    between atoms: _474  and  _475
REMARK  198  A    between atoms: _475  and  _476
REMARK  199  A    between atoms: _479  and  _481
REMARK  200  A    between atoms: _481  and  _482
REMARK  201  A    between atoms: _481  and  _484
REMARK  202  A    between atoms: _484  and  _485
REMARK  203  A    between atoms: _487  and  _489
REMARK  204  A    between atoms: _489  and  _490
REMARK  205  A    between atoms: _489  and  _492
REMARK  206  A    between atoms: _492  and  _493
REMARK  207  A    between atoms: _499  and  _501
REMARK  208  A    between atoms: _501  and  _502
REMARK  209  A    between atoms: _501  and  _504
REMARK  210  A    between atoms: _504  and  _505
REMARK  211  A    between atoms: _508  and  _510
REMARK  212  A    between atoms: _510  and  _511
REMARK  213  A    between atoms: _510  and  _513
REMARK  214  A    between atoms: _516  and  _518
REMARK  215  A    between atoms: _518  and  _519
REMARK  216  A    between atoms: _518  and  _521
REMARK  217  A    between atoms: _521  and  _522
REMARK  218  A    between atoms: _525  and  _527
REMARK  219  A    between atoms: _527  and  _528
REMARK  220  A    between atoms: _527  and  _530
REMARK  221  A    between atoms: _530  and  _531
REMARK  222  A    between atoms: _531  and  _532
REMARK  223  A    between atoms: _532  and  _533
REMARK  224  A    between atoms: _533  and  _534
REMARK  225  A    between atoms: _538  and  _540
REMARK  226  A    between atoms: _540  and  _541
REMARK  227  A    between atoms: _540  and  _543
REMARK  228  A    between atoms: _546  and  _548
REMARK  229  A    between atoms: _548  and  _549
REMARK  230  A    between atoms: _548  and  _551
REMARK  231  A    between atoms: _551  and  _552
REMARK                            x       y       z     vdW  Elec       q    Type
REMARK                         _______ _______ _______ _____ _____    ______ ____
ROOT
ATOM      1  O   HOH     1      -0.248  10.714  24.477  0.00  0.00    +0.000 OA
ENDROOT
TORSDOF 0
REMARK  Name = ../refined-set-2016/4cwt/4cwt_pocket.pdb
REMARK  231 active torsions:
REMARK  status: ('A' for Active; 'I' for Inactive)
REMARK    1  A    between atoms: _1  and  _3
REMARK    2  A    between atoms: _3  and  _4
REMARK    3  A    between atoms: _3  and  _6
REMARK    4  A    between atoms: _6  and  _7
REMARK    5  A    between atoms: _13  and  _15
REMARK    6  A    between atoms: _15  and  _16
REMARK    7  A    between atoms: _19  and  _21
REMARK    8  A    between atoms: _21  and  _22
REMARK    9  A    between atoms: _21  and  _24
REMARK   10  A    between atoms: _24  and  _25
REMARK   11  A    between atoms: _31  and  _33
REMARK   12  A    between atoms: _33  and  _34
REMARK   13  A    between atoms: _33  and  _36
REMARK   14  A    between atoms: _36  and  _37
REMARK   15  A    between atoms: _37  and  _38
REMARK   16  A    between atoms: _43  and  _45
REMARK   17  A    between atoms: _45  and  _46
REMARK   18  A    between atoms: _45  and  _48
REMARK   19  A    between atoms: _48  and  _49
REMARK   20  A    between atoms: _52  and  _54
REMARK   21  A    between atoms: _54  and  _55
REMARK   22  A    between atoms: _54  and  _57
REMARK   23  A    between atoms: _57  and  _58
REMARK   24  A    between atoms: _61  and  _63
REMARK   25  A    between atoms: _63  and  _64
REMARK   26  A    between atoms: _63  and  _66
REMARK   27  A    between atoms: _66  and  _67
REMARK   28  A    between atoms: _67  and  _68
REMARK   29  A    between atoms: _70  and  _72
REMARK   30  A    between atoms: _72  and  _73
REMARK   31  A    between atoms: _72  and  _75
REMARK   32  A    between atoms: _75  and  _76
REMARK   33  A    between atoms: _76  and  _77
REMARK   34  A    between atoms: _80  and  _82
REMARK   35  A    between atoms: _82  and  _83
REMARK   36  A    between atoms: _82  and  _85
REMARK   37  A    between atoms: _85  and  _86
REMARK   38  A    between atoms: _89  and  _91
REMARK   39  A    between atoms: _91  and  _92
REMARK   40  A    between atoms: _91  and  _94
REMARK   41  A    between atoms: _94  and  _95
REMARK   42  A    between atoms: _97  and  _99
REMARK   43  A    between atoms: _99  and  _100
REMARK   44  A    between atoms: _99  and  _102
REMARK   45  A    between atoms: _102  and  _103
REMARK   46  A    between atoms: _108  and  _110
REMARK   47  A    between atoms: _110  and  _111
REMARK   48  A    between atoms: _110  and  _113
REMARK   49  A    between atoms: _113  and  _114
REMARK   50  A    between atoms: _116  and  _118
REMARK   51  A    between atoms: _118  and  _119
REMARK   52  A    between atoms: _118  and  _121
REMARK   53  A    between atoms: _121  and  _122
REMARK   54  A    between atoms: _125  and  _127
REMARK   55  A    between atoms: _127  and  _128
REMARK   56  A    between atoms: _131  and  _133
REMARK   57  A    between atoms: _133  and  _134
REMARK   58  A    between atoms: _133  and  _136
REMARK   59  A    between atoms: _136  and  _137
REMARK   60  A    between atoms: _137  and  _138
REMARK   61  A    between atoms: _138  and  _139
REMARK   62  A    between atoms: _139  and  _140
REMARK   63  A    between atoms: _144  and  _146
REMARK   64  A    between atoms: _146  and  _147
REMARK   65  A    between atoms: _146  and  _149
REMARK   66  A    between atoms: _149  and  _150
REMARK   67  A    between atoms: _153  and  _155
REMARK   68  A    between atoms: _155  and  _156
REMARK   69  A    between atoms: _158  and  _160
REMARK   70  A    between atoms: _160  and  _161
REMARK   71  A    between atoms: _160  and  _163
REMARK   72  A    between atoms: _163  and  _164
REMARK   73  A    between atoms: _164  and  _165
REMARK   74  A    between atoms: _167  and  _169
REMARK   75  A    between atoms: _169  and  _170
REMARK   76  A    between atoms: _169  and  _172
REMARK   77  A    between atoms: _172  and  _173
REMARK   78  A    between atoms: _176  and  _178
REMARK   79  A    between atoms: _178  and  _179
REMARK   80  A    between atoms: _178  and  _181
REMARK   81  A    between atoms: _181  and  _182
REMARK   82  A    between atoms: _182  and  _183
REMARK   83  A    between atoms: _183  and  _184
REMARK   84  A    between atoms: _184  and  _185
REMARK   85  A    between atoms: _189  and  _191
REMARK   86  A    between atoms: _191  and  _192
REMARK   87  A    between atoms: _195  and  _197
REMARK   88  A    between atoms: _197  and  _198
REMARK   89  A    between atoms: _197  and  _200
REMARK   90  A    between atoms: _200  and  _201
REMARK   91  A    between atoms: _204  and  _206
REMARK   92  A    between atoms: _206  and  _207
REMARK   93  A    between atoms: _206  and  _209
REMARK   94  A    between atoms: _209  and  _210
REMARK   95  A    between atoms: _213  and  _215
REMARK   96  A    between atoms: _215  and  _216
REMARK   97  A    between atoms: _215  and  _218
REMARK   98  A    between atoms: _218  and  _219
REMARK   99  A    between atoms: _222  and  _224
REMARK  100  A    between atoms: _224  and  _225
REMARK  101  A    between atoms: _224  and  _227
REMARK  102  A    between atoms: _227  and  _228
REMARK  103  A    between atoms: _233  and  _235
REMARK  104  A    between atoms: _235  and  _236
REMARK  105  A    between atoms: _235  and  _238
REMARK  106  A    between atoms: _238  and  _239
REMARK  107  A    between atoms: _244  and  _246
REMARK  108  A    between atoms: _246  and  _247
REMARK  109  A    between atoms: _246  and  _249
REMARK  110  A    between atoms: _249  and  _250
REMARK  111  A    between atoms: _253  and  _255
REMARK  112  A    between atoms: _255  and  _256
REMARK  113  A    between atoms: _258  and  _260
REMARK  114  A    between atoms: _260  and  _261
REMARK  115  A    between atoms: _260  and  _263
REMARK  116  A    between atoms: _263  and  _264
REMARK  117  A    between atoms: _267  and  _269
REMARK  118  A    between atoms: _269  and  _270
REMARK  119  A    between atoms: _269  and  _272
REMARK  120  A    between atoms: _272  and  _273
REMARK  121  A    between atoms: _276  and  _278
REMARK  122  A    between atoms: _278  and  _279
REMARK  123  A    between atoms: _282  and  _284
REMARK  124  A    between atoms: _284  and  _285
REMARK  125  A    between atoms: _284  and  _287
REMARK  126  A    between atoms: _287  and  _288
REMARK  127  A    between atoms: _288  and  _289
REMARK  128  A    between atoms: _289  and  _290
REMARK  129  A    between atoms: _290  and  _291
REMARK  130  A    between atoms: _295  and  _297
REMARK  131  A    between atoms: _297  and  _298
REMARK  132  A    between atoms: _300  and  _302
REMARK  133  A    between atoms: _302  and  _303
REMARK  134  A    between atoms: _302  and  _305
REMARK  135  A    between atoms: _305  and  _306
REMARK  136  A    between atoms: _309  and  _311
REMARK  137  A    between atoms: _311  and  _312
REMARK  138  A    between atoms: _311  and  _314
REMARK  139  A    between atoms: _314  and  _315
REMARK  140  A    between atoms: _321  and  _323
REMARK  141  A    between atoms: _323  and  _324
REMARK  142  A    between atoms: _326  and  _328
REMARK  143  A    between atoms: _328  and  _329
REMARK  144  A    between atoms: _328  and  _331
REMARK  145  A    between atoms: _334  and  _336
REMARK  146  A    between atoms: _336  and  _337
REMARK  147  A    between atoms: _339  and  _341
REMARK  148  A    between atoms: _341  and  _342
REMARK  149  A    between atoms: _341  and  _344
REMARK  150  A    between atoms: _344  and  _345
REMARK  151  A    between atoms: _351  and  _353
REMARK  152  A    between atoms: _353  and  _354
REMARK  153  A    between atoms: _353  and  _356
REMARK  154  A    between atoms: _356  and  _357
REMARK  155  A    between atoms: _362  and  _363
REMARK  156  A    between atoms: _365  and  _367
REMARK  157  A    between atoms: _367  and  _368
REMARK  158  A    between atoms: _367  and  _370
REMARK  159  A    between atoms: _370  and  _371
REMARK  160  A    between atoms: _376  and  _377
REMARK  161  A    between atoms: _379  and  _381
REMARK  162  A    between atoms: _381  and  _382
REMARK  163  A    between atoms: _381  and  _384
REMARK  164  A    between atoms: _387  and  _389
REMARK  165  A    between atoms: _389  and  _390
REMARK  166  A    between atoms: _389  and  _392
REMARK  167  A    between atoms: _392  and  _393
REMARK  168  A    between atoms: _396  and  _398
REMARK  169  A    between atoms: _398  and  _399
REMARK  170  A    between atoms: _398  and  _401
REMARK  171  A    between atoms: _404  and  _406
REMARK  172  A    between atoms: _406  and  _407
REMARK  173  A    between atoms: _406  and  _409
REMARK  174  A    between atoms: _409  and  _410
REMARK  175  A    between atoms: _413  and  _415
REMARK  176  A    between atoms: _415  and  _416
REMARK  177  A    between atoms: _415  and  _418
REMARK  178  A    between atoms: _418  and  _419
REMARK  179  A    between atoms: _422  and  _424
REMARK  180  A    between atoms: _424  and  _425
REMARK  181  A    between atoms: _424  and  _427
REMARK  182  A    between atoms: _427  and  _428
REMARK  183  A    between atoms: _433  and  _435
REMARK  184  A    between atoms: _435  and  _436
REMARK  185  A    between atoms: _435  and  _438
REMARK  186  A    between atoms: _438  and  _439
REMARK  187  A    between atoms: _444  and  _445
REMARK  188  A    between atoms: _447  and  _449
REMARK  189  A    between atoms: _449  and  _450
REMARK  190  A    between atoms: _453  and  _455
REMARK  191  A    between atoms: _455  and  _456
REMARK  192  A    between atoms: _455  and  _458
REMARK  193  A    between atoms: _458  and  _459
REMARK  194  A    between atoms: _469  and  _471
REMARK  195  A    between atoms: _471  and  _472
REMARK  196  A    between atoms: _471  and  _474
REMARK  197  A    between atoms: _474  and  _475
REMARK  198  A    between atoms: _475  and  _476
REMARK  199  A    between atoms: _479  and  _481
REMARK  200  A    between atoms: _481  and  _482
REMARK  201  A    between atoms: _481  and  _484
REMARK  202  A    between atoms: _484  and  _485
REMARK  203  A    between atoms: _487  and  _489
REMARK  204  A    between atoms: _489  and  _490
REMARK  205  A    between atoms: _489  and  _492
REMARK  206  A    between atoms: _492  and  _493
REMARK  207  A    between atoms: _499  and  _501
REMARK  208  A    between atoms: _501  and  _502
REMARK  209  A    between atoms: _501  and  _504
REMARK  210  A    between atoms: _504  and  _505
REMARK  211  A    between atoms: _508  and  _510
REMARK  212  A    between atoms: _510  and  _511
REMARK  213  A    between atoms: _510  and  _513
REMARK  214  A    between atoms: _516  and  _518
REMARK  215  A    between atoms: _518  and  _519
REMARK  216  A    between atoms: _518  and  _521
REMARK  217  A    between atoms: _521  and  _522
REMARK  218  A    between atoms: _525  and  _527
REMARK  219  A    between atoms: _527  and  _528
REMARK  220  A    between atoms: _527  and  _530
REMARK  221  A    between atoms: _530  and  _531
REMARK  222  A    between atoms: _531  and  _532
REMARK  223  A    between atoms: _532  and  _533
REMARK  224  A    between atoms: _533  and  _534
REMARK  225  A    between atoms: _538  and  _540
REMARK  226  A    between atoms: _540  and  _541
REMARK  227  A    between atoms: _540  and  _543
REMARK  228  A    between atoms: _546  and  _548
REMARK  229  A    between atoms: _548  and  _549
REMARK  230  A    between atoms: _548  and  _551
REMARK  231  A    between atoms: _551  and  _552
REMARK                            x       y       z     vdW  Elec       q    Type
REMARK                         _______ _______ _______ _____ _____    ______ ____
ROOT
ATOM      1  O   HOH     1       3.897   2.318  20.801  0.00  0.00    +0.000 OA
ENDROOT
TORSDOF 0
REMARK  Name = ../refined-set-2016/4cwt/4cwt_pocket.pdb
REMARK  231 active torsions:
REMARK  status: ('A' for Active; 'I' for Inactive)
REMARK    1  A    between atoms: _1  and  _3
REMARK    2  A    between atoms: _3  and  _4
REMARK    3  A    between atoms: _3  and  _6
REMARK    4  A    between atoms: _6  and  _7
REMARK    5  A    between atoms: _13  and  _15
REMARK    6  A    between atoms: _15  and  _16
REMARK    7  A    between atoms: _19  and  _21
REMARK    8  A    between atoms: _21  and  _22
REMARK    9  A    between atoms: _21  and  _24
REMARK   10  A    between atoms: _24  and  _25
REMARK   11  A    between atoms: _31  and  _33
REMARK   12  A    between atoms: _33  and  _34
REMARK   13  A    between atoms: _33  and  _36
REMARK   14  A    between atoms: _36  and  _37
REMARK   15  A    between atoms: _37  and  _38
REMARK   16  A    between atoms: _43  and  _45
REMARK   17  A    between atoms: _45  and  _46
REMARK   18  A    between atoms: _45  and  _48
REMARK   19  A    between atoms: _48  and  _49
REMARK   20  A    between atoms: _52  and  _54
REMARK   21  A    between atoms: _54  and  _55
REMARK   22  A    between atoms: _54  and  _57
REMARK   23  A    between atoms: _57  and  _58
REMARK   24  A    between atoms: _61  and  _63
REMARK   25  A    between atoms: _63  and  _64
REMARK   26  A    between atoms: _63  and  _66
REMARK   27  A    between atoms: _66  and  _67
REMARK   28  A    between atoms: _67  and  _68
REMARK   29  A    between atoms: _70  and  _72
REMARK   30  A    between atoms: _72  and  _73
REMARK   31  A    between atoms: _72  and  _75
REMARK   32  A    between atoms: _75  and  _76
REMARK   33  A    between atoms: _76  and  _77
REMARK   34  A    between atoms: _80  and  _82
REMARK   35  A    between atoms: _82  and  _83
REMARK   36  A    between atoms: _82  and  _85
REMARK   37  A    between atoms: _85  and  _86
REMARK   38  A    between atoms: _89  and  _91
REMARK   39  A    between atoms: _91  and  _92
REMARK   40  A    between atoms: _91  and  _94
REMARK   41  A    between atoms: _94  and  _95
REMARK   42  A    between atoms: _97  and  _99
REMARK   43  A    between atoms: _99  and  _100
REMARK   44  A    between atoms: _99  and  _102
REMARK   45  A    between atoms: _102  and  _103
REMARK   46  A    between atoms: _108  and  _110
REMARK   47  A    between atoms: _110  and  _111
REMARK   48  A    between atoms: _110  and  _113
REMARK   49  A    between atoms: _113  and  _114
REMARK   50  A    between atoms: _116  and  _118
REMARK   51  A    between atoms: _118  and  _119
REMARK   52  A    between atoms: _118  and  _121
REMARK   53  A    between atoms: _121  and  _122
REMARK   54  A    between atoms: _125  and  _127
REMARK   55  A    between atoms: _127  and  _128
REMARK   56  A    between atoms: _131  and  _133
REMARK   57  A    between atoms: _133  and  _134
REMARK   58  A    between atoms: _133  and  _136
REMARK   59  A    between atoms: _136  and  _137
REMARK   60  A    between atoms: _137  and  _138
REMARK   61  A    between atoms: _138  and  _139
REMARK   62  A    between atoms: _139  and  _140
REMARK   63  A    between atoms: _144  and  _146
REMARK   64  A    between atoms: _146  and  _147
REMARK   65  A    between atoms: _146  and  _149
REMARK   66  A    between atoms: _149  and  _150
REMARK   67  A    between atoms: _153  and  _155
REMARK   68  A    between atoms: _155  and  _156
REMARK   69  A    between atoms: _158  and  _160
REMARK   70  A    between atoms: _160  and  _161
REMARK   71  A    between atoms: _160  and  _163
REMARK   72  A    between atoms: _163  and  _164
REMARK   73  A    between atoms: _164  and  _165
REMARK   74  A    between atoms: _167  and  _169
REMARK   75  A    between atoms: _169  and  _170
REMARK   76  A    between atoms: _169  and  _172
REMARK   77  A    between atoms: _172  and  _173
REMARK   78  A    between atoms: _176  and  _178
REMARK   79  A    between atoms: _178  and  _179
REMARK   80  A    between atoms: _178  and  _181
REMARK   81  A    between atoms: _181  and  _182
REMARK   82  A    between atoms: _182  and  _183
REMARK   83  A    between atoms: _183  and  _184
REMARK   84  A    between atoms: _184  and  _185
REMARK   85  A    between atoms: _189  and  _191
REMARK   86  A    between atoms: _191  and  _192
REMARK   87  A    between atoms: _195  and  _197
REMARK   88  A    between atoms: _197  and  _198
REMARK   89  A    between atoms: _197  and  _200
REMARK   90  A    between atoms: _200  and  _201
REMARK   91  A    between atoms: _204  and  _206
REMARK   92  A    between atoms: _206  and  _207
REMARK   93  A    between atoms: _206  and  _209
REMARK   94  A    between atoms: _209  and  _210
REMARK   95  A    between atoms: _213  and  _215
REMARK   96  A    between atoms: _215  and  _216
REMARK   97  A    between atoms: _215  and  _218
REMARK   98  A    between atoms: _218  and  _219
REMARK   99  A    between atoms: _222  and  _224
REMARK  100  A    between atoms: _224  and  _225
REMARK  101  A    between atoms: _224  and  _227
REMARK  102  A    between atoms: _227  and  _228
REMARK  103  A    between atoms: _233  and  _235
REMARK  104  A    between atoms: _235  and  _236
REMARK  105  A    between atoms: _235  and  _238
REMARK  106  A    between atoms: _238  and  _239
REMARK  107  A    between atoms: _244  and  _246
REMARK  108  A    between atoms: _246  and  _247
REMARK  109  A    between atoms: _246  and  _249
REMARK  110  A    between atoms: _249  and  _250
REMARK  111  A    between atoms: _253  and  _255
REMARK  112  A    between atoms: _255  and  _256
REMARK  113  A    between atoms: _258  and  _260
REMARK  114  A    between atoms: _260  and  _261
REMARK  115  A    between atoms: _260  and  _263
REMARK  116  A    between atoms: _263  and  _264
REMARK  117  A    between atoms: _267  and  _269
REMARK  118  A    between atoms: _269  and  _270
REMARK  119  A    between atoms: _269  and  _272
REMARK  120  A    between atoms: _272  and  _273
REMARK  121  A    between atoms: _276  and  _278
REMARK  122  A    between atoms: _278  and  _279
REMARK  123  A    between atoms: _282  and  _284
REMARK  124  A    between atoms: _284  and  _285
REMARK  125  A    between atoms: _284  and  _287
REMARK  126  A    between atoms: _287  and  _288
REMARK  127  A    between atoms: _288  and  _289
REMARK  128  A    between atoms: _289  and  _290
REMARK  129  A    between atoms: _290  and  _291
REMARK  130  A    between atoms: _295  and  _297
REMARK  131  A    between atoms: _297  and  _298
REMARK  132  A    between atoms: _300  and  _302
REMARK  133  A    between atoms: _302  and  _303
REMARK  134  A    between atoms: _302  and  _305
REMARK  135  A    between atoms: _305  and  _306
REMARK  136  A    between atoms: _309  and  _311
REMARK  137  A    between atoms: _311  and  _312
REMARK  138  A    between atoms: _311  and  _314
REMARK  139  A    between atoms: _314  and  _315
REMARK  140  A    between atoms: _321  and  _323
REMARK  141  A    between atoms: _323  and  _324
REMARK  142  A    between atoms: _326  and  _328
REMARK  143  A    between atoms: _328  and  _329
REMARK  144  A    between atoms: _328  and  _331
REMARK  145  A    between atoms: _334  and  _336
REMARK  146  A    between atoms: _336  and  _337
REMARK  147  A    between atoms: _339  and  _341
REMARK  148  A    between atoms: _341  and  _342
REMARK  149  A    between atoms: _341  and  _344
REMARK  150  A    between atoms: _344  and  _345
REMARK  151  A    between atoms: _351  and  _353
REMARK  152  A    between atoms: _353  and  _354
REMARK  153  A    between atoms: _353  and  _356
REMARK  154  A    between atoms: _356  and  _357
REMARK  155  A    between atoms: _362  and  _363
REMARK  156  A    between atoms: _365  and  _367
REMARK  157  A    between atoms: _367  and  _368
REMARK  158  A    between atoms: _367  and  _370
REMARK  159  A    between atoms: _370  and  _371
REMARK  160  A    between atoms: _376  and  _377
REMARK  161  A    between atoms: _379  and  _381
REMARK  162  A    between atoms: _381  and  _382
REMARK  163  A    between atoms: _381  and  _384
REMARK  164  A    between atoms: _387  and  _389
REMARK  165  A    between atoms: _389  and  _390
REMARK  166  A    between atoms: _389  and  _392
REMARK  167  A    between atoms: _392  and  _393
REMARK  168  A    between atoms: _396  and  _398
REMARK  169  A    between atoms: _398  and  _399
REMARK  170  A    between atoms: _398  and  _401
REMARK  171  A    between atoms: _404  and  _406
REMARK  172  A    between atoms: _406  and  _407
REMARK  173  A    between atoms: _406  and  _409
REMARK  174  A    between atoms: _409  and  _410
REMARK  175  A    between atoms: _413  and  _415
REMARK  176  A    between atoms: _415  and  _416
REMARK  177  A    between atoms: _415  and  _418
REMARK  178  A    between atoms: _418  and  _419
REMARK  179  A    between atoms: _422  and  _424
REMARK  180  A    between atoms: _424  and  _425
REMARK  181  A    between atoms: _424  and  _427
REMARK  182  A    between atoms: _427  and  _428
REMARK  183  A    between atoms: _433  and  _435
REMARK  184  A    between atoms: _435  and  _436
REMARK  185  A    between atoms: _435  and  _438
REMARK  186  A    between atoms: _438  and  _439
REMARK  187  A    between atoms: _444  and  _445
REMARK  188  A    between atoms: _447  and  _449
REMARK  189  A    between atoms: _449  and  _450
REMARK  190  A    between atoms: _453  and  _455
REMARK  191  A    between atoms: _455  and  _456
REMARK  192  A    between atoms: _455  and  _458
REMARK  193  A    between atoms: _458  and  _459
REMARK  194  A    between atoms: _469  and  _471
REMARK  195  A    between atoms: _471  and  _472
REMARK  196  A    between atoms: _471  and  _474
REMARK  197  A    between atoms: _474  and  _475
REMARK  198  A    between atoms: _475  and  _476
REMARK  199  A    between atoms: _479  and  _481
REMARK  200  A    between atoms: _481  and  _482
REMARK  201  A    between atoms: _481  and  _484
REMARK  202  A    between atoms: _484  and  _485
REMARK  203  A    between atoms: _487  and  _489
REMARK  204  A    between atoms: _489  and  _490
REMARK  205  A    between atoms: _489  and  _492
REMARK  206  A    between atoms: _492  and  _493
REMARK  207  A    between atoms: _499  and  _501
REMARK  208  A    between atoms: _501  and  _502
REMARK  209  A    between atoms: _501  and  _504
REMARK  210  A    between atoms: _504  and  _505
REMARK  211  A    between atoms: _508  and  _510
REMARK  212  A    between atoms: _510  and  _511
REMARK  213  A    between atoms: _510  and  _513
REMARK  214  A    between atoms: _516  and  _518
REMARK  215  A    between atoms: _518  and  _519
REMARK  216  A    between atoms: _518  and  _521
REMARK  217  A    between atoms: _521  and  _522
REMARK  218  A    between atoms: _525  and  _527
REMARK  219  A    between atoms: _527  and  _528
REMARK  220  A    between atoms: _527  and  _530
REMARK  221  A    between atoms: _530  and  _531
REMARK  222  A    between atoms: _531  and  _532
REMARK  223  A    between atoms: _532  and  _533
REMARK  224  A    between atoms: _533  and  _534
REMARK  225  A    between atoms: _538  and  _540
REMARK  226  A    between atoms: _540  and  _541
REMARK  227  A    between atoms: _540  and  _543
REMARK  228  A    between atoms: _546  and  _548
REMARK  229  A    between atoms: _548  and  _549
REMARK  230  A    between atoms: _548  and  _551
REMARK  231  A    between atoms: _551  and  _552
REMARK                            x       y       z     vdW  Elec       q    Type
REMARK                         _______ _______ _______ _____ _____    ______ ____
ROOT
ATOM      1  O   HOH     1       2.367   8.235  16.930  0.00  0.00    +0.000 OA
ENDROOT
TORSDOF 0
REMARK  Name = ../refined-set-2016/4cwt/4cwt_pocket.pdb
REMARK  231 active torsions:
REMARK  status: ('A' for Active; 'I' for Inactive)
REMARK    1  A    between atoms: _1  and  _3
REMARK    2  A    between atoms: _3  and  _4
REMARK    3  A    between atoms: _3  and  _6
REMARK    4  A    between atoms: _6  and  _7
REMARK    5  A    between atoms: _13  and  _15
REMARK    6  A    between atoms: _15  and  _16
REMARK    7  A    between atoms: _19  and  _21
REMARK    8  A    between atoms: _21  and  _22
REMARK    9  A    between atoms: _21  and  _24
REMARK   10  A    between atoms: _24  and  _25
REMARK   11  A    between atoms: _31  and  _33
REMARK   12  A    between atoms: _33  and  _34
REMARK   13  A    between atoms: _33  and  _36
REMARK   14  A    between atoms: _36  and  _37
REMARK   15  A    between atoms: _37  and  _38
REMARK   16  A    between atoms: _43  and  _45
REMARK   17  A    between atoms: _45  and  _46
REMARK   18  A    between atoms: _45  and  _48
REMARK   19  A    between atoms: _48  and  _49
REMARK   20  A    between atoms: _52  and  _54
REMARK   21  A    between atoms: _54  and  _55
REMARK   22  A    between atoms: _54  and  _57
REMARK   23  A    between atoms: _57  and  _58
REMARK   24  A    between atoms: _61  and  _63
REMARK   25  A    between atoms: _63  and  _64
REMARK   26  A    between atoms: _63  and  _66
REMARK   27  A    between atoms: _66  and  _67
REMARK   28  A    between atoms: _67  and  _68
REMARK   29  A    between atoms: _70  and  _72
REMARK   30  A    between atoms: _72  and  _73
REMARK   31  A    between atoms: _72  and  _75
REMARK   32  A    between atoms: _75  and  _76
REMARK   33  A    between atoms: _76  and  _77
REMARK   34  A    between atoms: _80  and  _82
REMARK   35  A    between atoms: _82  and  _83
REMARK   36  A    between atoms: _82  and  _85
REMARK   37  A    between atoms: _85  and  _86
REMARK   38  A    between atoms: _89  and  _91
REMARK   39  A    between atoms: _91  and  _92
REMARK   40  A    between atoms: _91  and  _94
REMARK   41  A    between atoms: _94  and  _95
REMARK   42  A    between atoms: _97  and  _99
REMARK   43  A    between atoms: _99  and  _100
REMARK   44  A    between atoms: _99  and  _102
REMARK   45  A    between atoms: _102  and  _103
REMARK   46  A    between atoms: _108  and  _110
REMARK   47  A    between atoms: _110  and  _111
REMARK   48  A    between atoms: _110  and  _113
REMARK   49  A    between atoms: _113  and  _114
REMARK   50  A    between atoms: _116  and  _118
REMARK   51  A    between atoms: _118  and  _119
REMARK   52  A    between atoms: _118  and  _121
REMARK   53  A    between atoms: _121  and  _122
REMARK   54  A    between atoms: _125  and  _127
REMARK   55  A    between atoms: _127  and  _128
REMARK   56  A    between atoms: _131  and  _133
REMARK   57  A    between atoms: _133  and  _134
REMARK   58  A    between atoms: _133  and  _136
REMARK   59  A    between atoms: _136  and  _137
REMARK   60  A    between atoms: _137  and  _138
REMARK   61  A    between atoms: _138  and  _139
REMARK   62  A    between atoms: _139  and  _140
REMARK   63  A    between atoms: _144  and  _146
REMARK   64  A    between atoms: _146  and  _147
REMARK   65  A    between atoms: _146  and  _149
REMARK   66  A    between atoms: _149  and  _150
REMARK   67  A    between atoms: _153  and  _155
REMARK   68  A    between atoms: _155  and  _156
REMARK   69  A    between atoms: _158  and  _160
REMARK   70  A    between atoms: _160  and  _161
REMARK   71  A    between atoms: _160  and  _163
REMARK   72  A    between atoms: _163  and  _164
REMARK   73  A    between atoms: _164  and  _165
REMARK   74  A    between atoms: _167  and  _169
REMARK   75  A    between atoms: _169  and  _170
REMARK   76  A    between atoms: _169  and  _172
REMARK   77  A    between atoms: _172  and  _173
REMARK   78  A    between atoms: _176  and  _178
REMARK   79  A    between atoms: _178  and  _179
REMARK   80  A    between atoms: _178  and  _181
REMARK   81  A    between atoms: _181  and  _182
REMARK   82  A    between atoms: _182  and  _183
REMARK   83  A    between atoms: _183  and  _184
REMARK   84  A    between atoms: _184  and  _185
REMARK   85  A    between atoms: _189  and  _191
REMARK   86  A    between atoms: _191  and  _192
REMARK   87  A    between atoms: _195  and  _197
REMARK   88  A    between atoms: _197  and  _198
REMARK   89  A    between atoms: _197  and  _200
REMARK   90  A    between atoms: _200  and  _201
REMARK   91  A    between atoms: _204  and  _206
REMARK   92  A    between atoms: _206  and  _207
REMARK   93  A    between atoms: _206  and  _209
REMARK   94  A    between atoms: _209  and  _210
REMARK   95  A    between atoms: _213  and  _215
REMARK   96  A    between atoms: _215  and  _216
REMARK   97  A    between atoms: _215  and  _218
REMARK   98  A    between atoms: _218  and  _219
REMARK   99  A    between atoms: _222  and  _224
REMARK  100  A    between atoms: _224  and  _225
REMARK  101  A    between atoms: _224  and  _227
REMARK  102  A    between atoms: _227  and  _228
REMARK  103  A    between atoms: _233  and  _235
REMARK  104  A    between atoms: _235  and  _236
REMARK  105  A    between atoms: _235  and  _238
REMARK  106  A    between atoms: _238  and  _239
REMARK  107  A    between atoms: _244  and  _246
REMARK  108  A    between atoms: _246  and  _247
REMARK  109  A    between atoms: _246  and  _249
REMARK  110  A    between atoms: _249  and  _250
REMARK  111  A    between atoms: _253  and  _255
REMARK  112  A    between atoms: _255  and  _256
REMARK  113  A    between atoms: _258  and  _260
REMARK  114  A    between atoms: _260  and  _261
REMARK  115  A    between atoms: _260  and  _263
REMARK  116  A    between atoms: _263  and  _264
REMARK  117  A    between atoms: _267  and  _269
REMARK  118  A    between atoms: _269  and  _270
REMARK  119  A    between atoms: _269  and  _272
REMARK  120  A    between atoms: _272  and  _273
REMARK  121  A    between atoms: _276  and  _278
REMARK  122  A    between atoms: _278  and  _279
REMARK  123  A    between atoms: _282  and  _284
REMARK  124  A    between atoms: _284  and  _285
REMARK  125  A    between atoms: _284  and  _287
REMARK  126  A    between atoms: _287  and  _288
REMARK  127  A    between atoms: _288  and  _289
REMARK  128  A    between atoms: _289  and  _290
REMARK  129  A    between atoms: _290  and  _291
REMARK  130  A    between atoms: _295  and  _297
REMARK  131  A    between atoms: _297  and  _298
REMARK  132  A    between atoms: _300  and  _302
REMARK  133  A    between atoms: _302  and  _303
REMARK  134  A    between atoms: _302  and  _305
REMARK  135  A    between atoms: _305  and  _306
REMARK  136  A    between atoms: _309  and  _311
REMARK  137  A    between atoms: _311  and  _312
REMARK  138  A    between atoms: _311  and  _314
REMARK  139  A    between atoms: _314  and  _315
REMARK  140  A    between atoms: _321  and  _323
REMARK  141  A    between atoms: _323  and  _324
REMARK  142  A    between atoms: _326  and  _328
REMARK  143  A    between atoms: _328  and  _329
REMARK  144  A    between atoms: _328  and  _331
REMARK  145  A    between atoms: _334  and  _336
REMARK  146  A    between atoms: _336  and  _337
REMARK  147  A    between atoms: _339  and  _341
REMARK  148  A    between atoms: _341  and  _342
REMARK  149  A    between atoms: _341  and  _344
REMARK  150  A    between atoms: _344  and  _345
REMARK  151  A    between atoms: _351  and  _353
REMARK  152  A    between atoms: _353  and  _354
REMARK  153  A    between atoms: _353  and  _356
REMARK  154  A    between atoms: _356  and  _357
REMARK  155  A    between atoms: _362  and  _363
REMARK  156  A    between atoms: _365  and  _367
REMARK  157  A    between atoms: _367  and  _368
REMARK  158  A    between atoms: _367  and  _370
REMARK  159  A    between atoms: _370  and  _371
REMARK  160  A    between atoms: _376  and  _377
REMARK  161  A    between atoms: _379  and  _381
REMARK  162  A    between atoms: _381  and  _382
REMARK  163  A    between atoms: _381  and  _384
REMARK  164  A    between atoms: _387  and  _389
REMARK  165  A    between atoms: _389  and  _390
REMARK  166  A    between atoms: _389  and  _392
REMARK  167  A    between atoms: _392  and  _393
REMARK  168  A    between atoms: _396  and  _398
REMARK  169  A    between atoms: _398  and  _399
REMARK  170  A    between atoms: _398  and  _401
REMARK  171  A    between atoms: _404  and  _406
REMARK  172  A    between atoms: _406  and  _407
REMARK  173  A    between atoms: _406  and  _409
REMARK  174  A    between atoms: _409  and  _410
REMARK  175  A    between atoms: _413  and  _415
REMARK  176  A    between atoms: _415  and  _416
REMARK  177  A    between atoms: _415  and  _418
REMARK  178  A    between atoms: _418  and  _419
REMARK  179  A    between atoms: _422  and  _424
REMARK  180  A    between atoms: _424  and  _425
REMARK  181  A    between atoms: _424  and  _427
REMARK  182  A    between atoms: _427  and  _428
REMARK  183  A    between atoms: _433  and  _435
REMARK  184  A    between atoms: _435  and  _436
REMARK  185  A    between atoms: _435  and  _438
REMARK  186  A    between atoms: _438  and  _439
REMARK  187  A    between atoms: _444  and  _445
REMARK  188  A    between atoms: _447  and  _449
REMARK  189  A    between atoms: _449  and  _450
REMARK  190  A    between atoms: _453  and  _455
REMARK  191  A    between atoms: _455  and  _456
REMARK  192  A    between atoms: _455  and  _458
REMARK  193  A    between atoms: _458  and  _459
REMARK  194  A    between atoms: _469  and  _471
REMARK  195  A    between atoms: _471  and  _472
REMARK  196  A    between atoms: _471  and  _474
REMARK  197  A    between atoms: _474  and  _475
REMARK  198  A    between atoms: _475  and  _476
REMARK  199  A    between atoms: _479  and  _481
REMARK  200  A    between atoms: _481  and  _482
REMARK  201  A    between atoms: _481  and  _484
REMARK  202  A    between atoms: _484  and  _485
REMARK  203  A    between atoms: _487  and  _489
REMARK  204  A    between atoms: _489  and  _490
REMARK  205  A    between atoms: _489  and  _492
REMARK  206  A    between atoms: _492  and  _493
REMARK  207  A    between atoms: _499  and  _501
REMARK  208  A    between atoms: _501  and  _502
REMARK  209  A    between atoms: _501  and  _504
REMARK  210  A    between atoms: _504  and  _505
REMARK  211  A    between atoms: _508  and  _510
REMARK  212  A    between atoms: _510  and  _511
REMARK  213  A    between atoms: _510  and  _513
REMARK  214  A    between atoms: _516  and  _518
REMARK  215  A    between atoms: _518  and  _519
REMARK  216  A    between atoms: _518  and  _521
REMARK  217  A    between atoms: _521  and  _522
REMARK  218  A    between atoms: _525  and  _527
REMARK  219  A    between atoms: _527  and  _528
REMARK  220  A    between atoms: _527  and  _530
REMARK  221  A    between atoms: _530  and  _531
REMARK  222  A    between atoms: _531  and  _532
REMARK  223  A    between atoms: _532  and  _533
REMARK  224  A    between atoms: _533  and  _534
REMARK  225  A    between atoms: _538  and  _540
REMARK  226  A    between atoms: _540  and  _541
REMARK  227  A    between atoms: _540  and  _543
REMARK  228  A    between atoms: _546  and  _548
REMARK  229  A    between atoms: _548  and  _549
REMARK  230  A    between atoms: _548  and  _551
REMARK  231  A    between atoms: _551  and  _552
REMARK                            x       y       z     vdW  Elec       q    Type
REMARK                         _______ _______ _______ _____ _____    ______ ____
ROOT
ATOM      1  O   HOH     1      -2.494  13.245  21.063  0.00  0.00    +0.000 OA
ENDROOT
TORSDOF 0
REMARK  Name = ../refined-set-2016/4cwt/4cwt_pocket.pdb
REMARK  231 active torsions:
REMARK  status: ('A' for Active; 'I' for Inactive)
REMARK    1  A    between atoms: _1  and  _3
REMARK    2  A    between atoms: _3  and  _4
REMARK    3  A    between atoms: _3  and  _6
REMARK    4  A    between atoms: _6  and  _7
REMARK    5  A    between atoms: _13  and  _15
REMARK    6  A    between atoms: _15  and  _16
REMARK    7  A    between atoms: _19  and  _21
REMARK    8  A    between atoms: _21  and  _22
REMARK    9  A    between atoms: _21  and  _24
REMARK   10  A    between atoms: _24  and  _25
REMARK   11  A    between atoms: _31  and  _33
REMARK   12  A    between atoms: _33  and  _34
REMARK   13  A    between atoms: _33  and  _36
REMARK   14  A    between atoms: _36  and  _37
REMARK   15  A    between atoms: _37  and  _38
REMARK   16  A    between atoms: _43  and  _45
REMARK   17  A    between atoms: _45  and  _46
REMARK   18  A    between atoms: _45  and  _48
REMARK   19  A    between atoms: _48  and  _49
REMARK   20  A    between atoms: _52  and  _54
REMARK   21  A    between atoms: _54  and  _55
REMARK   22  A    between atoms: _54  and  _57
REMARK   23  A    between atoms: _57  and  _58
REMARK   24  A    between atoms: _61  and  _63
REMARK   25  A    between atoms: _63  and  _64
REMARK   26  A    between atoms: _63  and  _66
REMARK   27  A    between atoms: _66  and  _67
REMARK   28  A    between atoms: _67  and  _68
REMARK   29  A    between atoms: _70  and  _72
REMARK   30  A    between atoms: _72  and  _73
REMARK   31  A    between atoms: _72  and  _75
REMARK   32  A    between atoms: _75  and  _76
REMARK   33  A    between atoms: _76  and  _77
REMARK   34  A    between atoms: _80  and  _82
REMARK   35  A    between atoms: _82  and  _83
REMARK   36  A    between atoms: _82  and  _85
REMARK   37  A    between atoms: _85  and  _86
REMARK   38  A    between atoms: _89  and  _91
REMARK   39  A    between atoms: _91  and  _92
REMARK   40  A    between atoms: _91  and  _94
REMARK   41  A    between atoms: _94  and  _95
REMARK   42  A    between atoms: _97  and  _99
REMARK   43  A    between atoms: _99  and  _100
REMARK   44  A    between atoms: _99  and  _102
REMARK   45  A    between atoms: _102  and  _103
REMARK   46  A    between atoms: _108  and  _110
REMARK   47  A    between atoms: _110  and  _111
REMARK   48  A    between atoms: _110  and  _113
REMARK   49  A    between atoms: _113  and  _114
REMARK   50  A    between atoms: _116  and  _118
REMARK   51  A    between atoms: _118  and  _119
REMARK   52  A    between atoms: _118  and  _121
REMARK   53  A    between atoms: _121  and  _122
REMARK   54  A    between atoms: _125  and  _127
REMARK   55  A    between atoms: _127  and  _128
REMARK   56  A    between atoms: _131  and  _133
REMARK   57  A    between atoms: _133  and  _134
REMARK   58  A    between atoms: _133  and  _136
REMARK   59  A    between atoms: _136  and  _137
REMARK   60  A    between atoms: _137  and  _138
REMARK   61  A    between atoms: _138  and  _139
REMARK   62  A    between atoms: _139  and  _140
REMARK   63  A    between atoms: _144  and  _146
REMARK   64  A    between atoms: _146  and  _147
REMARK   65  A    between atoms: _146  and  _149
REMARK   66  A    between atoms: _149  and  _150
REMARK   67  A    between atoms: _153  and  _155
REMARK   68  A    between atoms: _155  and  _156
REMARK   69  A    between atoms: _158  and  _160
REMARK   70  A    between atoms: _160  and  _161
REMARK   71  A    between atoms: _160  and  _163
REMARK   72  A    between atoms: _163  and  _164
REMARK   73  A    between atoms: _164  and  _165
REMARK   74  A    between atoms: _167  and  _169
REMARK   75  A    between atoms: _169  and  _170
REMARK   76  A    between atoms: _169  and  _172
REMARK   77  A    between atoms: _172  and  _173
REMARK   78  A    between atoms: _176  and  _178
REMARK   79  A    between atoms: _178  and  _179
REMARK   80  A    between atoms: _178  and  _181
REMARK   81  A    between atoms: _181  and  _182
REMARK   82  A    between atoms: _182  and  _183
REMARK   83  A    between atoms: _183  and  _184
REMARK   84  A    between atoms: _184  and  _185
REMARK   85  A    between atoms: _189  and  _191
REMARK   86  A    between atoms: _191  and  _192
REMARK   87  A    between atoms: _195  and  _197
REMARK   88  A    between atoms: _197  and  _198
REMARK   89  A    between atoms: _197  and  _200
REMARK   90  A    between atoms: _200  and  _201
REMARK   91  A    between atoms: _204  and  _206
REMARK   92  A    between atoms: _206  and  _207
REMARK   93  A    between atoms: _206  and  _209
REMARK   94  A    between atoms: _209  and  _210
REMARK   95  A    between atoms: _213  and  _215
REMARK   96  A    between atoms: _215  and  _216
REMARK   97  A    between atoms: _215  and  _218
REMARK   98  A    between atoms: _218  and  _219
REMARK   99  A    between atoms: _222  and  _224
REMARK  100  A    between atoms: _224  and  _225
REMARK  101  A    between atoms: _224  and  _227
REMARK  102  A    between atoms: _227  and  _228
REMARK  103  A    between atoms: _233  and  _235
REMARK  104  A    between atoms: _235  and  _236
REMARK  105  A    between atoms: _235  and  _238
REMARK  106  A    between atoms: _238  and  _239
REMARK  107  A    between atoms: _244  and  _246
REMARK  108  A    between atoms: _246  and  _247
REMARK  109  A    between atoms: _246  and  _249
REMARK  110  A    between atoms: _249  and  _250
REMARK  111  A    between atoms: _253  and  _255
REMARK  112  A    between atoms: _255  and  _256
REMARK  113  A    between atoms: _258  and  _260
REMARK  114  A    between atoms: _260  and  _261
REMARK  115  A    between atoms: _260  and  _263
REMARK  116  A    between atoms: _263  and  _264
REMARK  117  A    between atoms: _267  and  _269
REMARK  118  A    between atoms: _269  and  _270
REMARK  119  A    between atoms: _269  and  _272
REMARK  120  A    between atoms: _272  and  _273
REMARK  121  A    between atoms: _276  and  _278
REMARK  122  A    between atoms: _278  and  _279
REMARK  123  A    between atoms: _282  and  _284
REMARK  124  A    between atoms: _284  and  _285
REMARK  125  A    between atoms: _284  and  _287
REMARK  126  A    between atoms: _287  and  _288
REMARK  127  A    between atoms: _288  and  _289
REMARK  128  A    between atoms: _289  and  _290
REMARK  129  A    between atoms: _290  and  _291
REMARK  130  A    between atoms: _295  and  _297
REMARK  131  A    between atoms: _297  and  _298
REMARK  132  A    between atoms: _300  and  _302
REMARK  133  A    between atoms: _302  and  _303
REMARK  134  A    between atoms: _302  and  _305
REMARK  135  A    between atoms: _305  and  _306
REMARK  136  A    between atoms: _309  and  _311
REMARK  137  A    between atoms: _311  and  _312
REMARK  138  A    between atoms: _311  and  _314
REMARK  139  A    between atoms: _314  and  _315
REMARK  140  A    between atoms: _321  and  _323
REMARK  141  A    between atoms: _323  and  _324
REMARK  142  A    between atoms: _326  and  _328
REMARK  143  A    between atoms: _328  and  _329
REMARK  144  A    between atoms: _328  and  _331
REMARK  145  A    between atoms: _334  and  _336
REMARK  146  A    between atoms: _336  and  _337
REMARK  147  A    between atoms: _339  and  _341
REMARK  148  A    between atoms: _341  and  _342
REMARK  149  A    between atoms: _341  and  _344
REMARK  150  A    between atoms: _344  and  _345
REMARK  151  A    between atoms: _351  and  _353
REMARK  152  A    between atoms: _353  and  _354
REMARK  153  A    between atoms: _353  and  _356
REMARK  154  A    between atoms: _356  and  _357
REMARK  155  A    between atoms: _362  and  _363
REMARK  156  A    between atoms: _365  and  _367
REMARK  157  A    between atoms: _367  and  _368
REMARK  158  A    between atoms: _367  and  _370
REMARK  159  A    between atoms: _370  and  _371
REMARK  160  A    between atoms: _376  and  _377
REMARK  161  A    between atoms: _379  and  _381
REMARK  162  A    between atoms: _381  and  _382
REMARK  163  A    between atoms: _381  and  _384
REMARK  164  A    between atoms: _387  and  _389
REMARK  165  A    between atoms: _389  and  _390
REMARK  166  A    between atoms: _389  and  _392
REMARK  167  A    between atoms: _392  and  _393
REMARK  168  A    between atoms: _396  and  _398
REMARK  169  A    between atoms: _398  and  _399
REMARK  170  A    between atoms: _398  and  _401
REMARK  171  A    between atoms: _404  and  _406
REMARK  172  A    between atoms: _406  and  _407
REMARK  173  A    between atoms: _406  and  _409
REMARK  174  A    between atoms: _409  and  _410
REMARK  175  A    between atoms: _413  and  _415
REMARK  176  A    between atoms: _415  and  _416
REMARK  177  A    between atoms: _415  and  _418
REMARK  178  A    between atoms: _418  and  _419
REMARK  179  A    between atoms: _422  and  _424
REMARK  180  A    between atoms: _424  and  _425
REMARK  181  A    between atoms: _424  and  _427
REMARK  182  A    between atoms: _427  and  _428
REMARK  183  A    between atoms: _433  and  _435
REMARK  184  A    between atoms: _435  and  _436
REMARK  185  A    between atoms: _435  and  _438
REMARK  186  A    between atoms: _438  and  _439
REMARK  187  A    between atoms: _444  and  _445
REMARK  188  A    between atoms: _447  and  _449
REMARK  189  A    between atoms: _449  and  _450
REMARK  190  A    between atoms: _453  and  _455
REMARK  191  A    between atoms: _455  and  _456
REMARK  192  A    between atoms: _455  and  _458
REMARK  193  A    between atoms: _458  and  _459
REMARK  194  A    between atoms: _469  and  _471
REMARK  195  A    between atoms: _471  and  _472
REMARK  196  A    between atoms: _471  and  _474
REMARK  197  A    between atoms: _474  and  _475
REMARK  198  A    between atoms: _475  and  _476
REMARK  199  A    between atoms: _479  and  _481
REMARK  200  A    between atoms: _481  and  _482
REMARK  201  A    between atoms: _481  and  _484
REMARK  202  A    between atoms: _484  and  _485
REMARK  203  A    between atoms: _487  and  _489
REMARK  204  A    between atoms: _489  and  _490
REMARK  205  A    between atoms: _489  and  _492
REMARK  206  A    between atoms: _492  and  _493
REMARK  207  A    between atoms: _499  and  _501
REMARK  208  A    between atoms: _501  and  _502
REMARK  209  A    between atoms: _501  and  _504
REMARK  210  A    between atoms: _504  and  _505
REMARK  211  A    between atoms: _508  and  _510
REMARK  212  A    between atoms: _510  and  _511
REMARK  213  A    between atoms: _510  and  _513
REMARK  214  A    between atoms: _516  and  _518
REMARK  215  A    between atoms: _518  and  _519
REMARK  216  A    between atoms: _518  and  _521
REMARK  217  A    between atoms: _521  and  _522
REMARK  218  A    between atoms: _525  and  _527
REMARK  219  A    between atoms: _527  and  _528
REMARK  220  A    between atoms: _527  and  _530
REMARK  221  A    between atoms: _530  and  _531
REMARK  222  A    between atoms: _531  and  _532
REMARK  223  A    between atoms: _532  and  _533
REMARK  224  A    between atoms: _533  and  _534
REMARK  225  A    between atoms: _538  and  _540
REMARK  226  A    between atoms: _540  and  _541
REMARK  227  A    between atoms: _540  and  _543
REMARK  228  A    between atoms: _546  and  _548
REMARK  229  A    between atoms: _548  and  _549
REMARK  230  A    between atoms: _548  and  _551
REMARK  231  A    between atoms: _551  and  _552
REMARK                            x       y       z     vdW  Elec       q    Type
REMARK                         _______ _______ _______ _____ _____    ______ ____
ROOT
ATOM      1  O   HOH     1       0.499   6.031  18.736  0.00  0.00    +0.000 OA
ENDROOT
TORSDOF 0
REMARK  Name = ../refined-set-2016/4cwt/4cwt_pocket.pdb
REMARK  231 active torsions:
REMARK  status: ('A' for Active; 'I' for Inactive)
REMARK    1  A    between atoms: _1  and  _3
REMARK    2  A    between atoms: _3  and  _4
REMARK    3  A    between atoms: _3  and  _6
REMARK    4  A    between atoms: _6  and  _7
REMARK    5  A    between atoms: _13  and  _15
REMARK    6  A    between atoms: _15  and  _16
REMARK    7  A    between atoms: _19  and  _21
REMARK    8  A    between atoms: _21  and  _22
REMARK    9  A    between atoms: _21  and  _24
REMARK   10  A    between atoms: _24  and  _25
REMARK   11  A    between atoms: _31  and  _33
REMARK   12  A    between atoms: _33  and  _34
REMARK   13  A    between atoms: _33  and  _36
REMARK   14  A    between atoms: _36  and  _37
REMARK   15  A    between atoms: _37  and  _38
REMARK   16  A    between atoms: _43  and  _45
REMARK   17  A    between atoms: _45  and  _46
REMARK   18  A    between atoms: _45  and  _48
REMARK   19  A    between atoms: _48  and  _49
REMARK   20  A    between atoms: _52  and  _54
REMARK   21  A    between atoms: _54  and  _55
REMARK   22  A    between atoms: _54  and  _57
REMARK   23  A    between atoms: _57  and  _58
REMARK   24  A    between atoms: _61  and  _63
REMARK   25  A    between atoms: _63  and  _64
REMARK   26  A    between atoms: _63  and  _66
REMARK   27  A    between atoms: _66  and  _67
REMARK   28  A    between atoms: _67  and  _68
REMARK   29  A    between atoms: _70  and  _72
REMARK   30  A    between atoms: _72  and  _73
REMARK   31  A    between atoms: _72  and  _75
REMARK   32  A    between atoms: _75  and  _76
REMARK   33  A    between atoms: _76  and  _77
REMARK   34  A    between atoms: _80  and  _82
REMARK   35  A    between atoms: _82  and  _83
REMARK   36  A    between atoms: _82  and  _85
REMARK   37  A    between atoms: _85  and  _86
REMARK   38  A    between atoms: _89  and  _91
REMARK   39  A    between atoms: _91  and  _92
REMARK   40  A    between atoms: _91  and  _94
REMARK   41  A    between atoms: _94  and  _95
REMARK   42  A    between atoms: _97  and  _99
REMARK   43  A    between atoms: _99  and  _100
REMARK   44  A    between atoms: _99  and  _102
REMARK   45  A    between atoms: _102  and  _103
REMARK   46  A    between atoms: _108  and  _110
REMARK   47  A    between atoms: _110  and  _111
REMARK   48  A    between atoms: _110  and  _113
REMARK   49  A    between atoms: _113  and  _114
REMARK   50  A    between atoms: _116  and  _118
REMARK   51  A    between atoms: _118  and  _119
REMARK   52  A    between atoms: _118  and  _121
REMARK   53  A    between atoms: _121  and  _122
REMARK   54  A    between atoms: _125  and  _127
REMARK   55  A    between atoms: _127  and  _128
REMARK   56  A    between atoms: _131  and  _133
REMARK   57  A    between atoms: _133  and  _134
REMARK   58  A    between atoms: _133  and  _136
REMARK   59  A    between atoms: _136  and  _137
REMARK   60  A    between atoms: _137  and  _138
REMARK   61  A    between atoms: _138  and  _139
REMARK   62  A    between atoms: _139  and  _140
REMARK   63  A    between atoms: _144  and  _146
REMARK   64  A    between atoms: _146  and  _147
REMARK   65  A    between atoms: _146  and  _149
REMARK   66  A    between atoms: _149  and  _150
REMARK   67  A    between atoms: _153  and  _155
REMARK   68  A    between atoms: _155  and  _156
REMARK   69  A    between atoms: _158  and  _160
REMARK   70  A    between atoms: _160  and  _161
REMARK   71  A    between atoms: _160  and  _163
REMARK   72  A    between atoms: _163  and  _164
REMARK   73  A    between atoms: _164  and  _165
REMARK   74  A    between atoms: _167  and  _169
REMARK   75  A    between atoms: _169  and  _170
REMARK   76  A    between atoms: _169  and  _172
REMARK   77  A    between atoms: _172  and  _173
REMARK   78  A    between atoms: _176  and  _178
REMARK   79  A    between atoms: _178  and  _179
REMARK   80  A    between atoms: _178  and  _181
REMARK   81  A    between atoms: _181  and  _182
REMARK   82  A    between atoms: _182  and  _183
REMARK   83  A    between atoms: _183  and  _184
REMARK   84  A    between atoms: _184  and  _185
REMARK   85  A    between atoms: _189  and  _191
REMARK   86  A    between atoms: _191  and  _192
REMARK   87  A    between atoms: _195  and  _197
REMARK   88  A    between atoms: _197  and  _198
REMARK   89  A    between atoms: _197  and  _200
REMARK   90  A    between atoms: _200  and  _201
REMARK   91  A    between atoms: _204  and  _206
REMARK   92  A    between atoms: _206  and  _207
REMARK   93  A    between atoms: _206  and  _209
REMARK   94  A    between atoms: _209  and  _210
REMARK   95  A    between atoms: _213  and  _215
REMARK   96  A    between atoms: _215  and  _216
REMARK   97  A    between atoms: _215  and  _218
REMARK   98  A    between atoms: _218  and  _219
REMARK   99  A    between atoms: _222  and  _224
REMARK  100  A    between atoms: _224  and  _225
REMARK  101  A    between atoms: _224  and  _227
REMARK  102  A    between atoms: _227  and  _228
REMARK  103  A    between atoms: _233  and  _235
REMARK  104  A    between atoms: _235  and  _236
REMARK  105  A    between atoms: _235  and  _238
REMARK  106  A    between atoms: _238  and  _239
REMARK  107  A    between atoms: _244  and  _246
REMARK  108  A    between atoms: _246  and  _247
REMARK  109  A    between atoms: _246  and  _249
REMARK  110  A    between atoms: _249  and  _250
REMARK  111  A    between atoms: _253  and  _255
REMARK  112  A    between atoms: _255  and  _256
REMARK  113  A    between atoms: _258  and  _260
REMARK  114  A    between atoms: _260  and  _261
REMARK  115  A    between atoms: _260  and  _263
REMARK  116  A    between atoms: _263  and  _264
REMARK  117  A    between atoms: _267  and  _269
REMARK  118  A    between atoms: _269  and  _270
REMARK  119  A    between atoms: _269  and  _272
REMARK  120  A    between atoms: _272  and  _273
REMARK  121  A    between atoms: _276  and  _278
REMARK  122  A    between atoms: _278  and  _279
REMARK  123  A    between atoms: _282  and  _284
REMARK  124  A    between atoms: _284  and  _285
REMARK  125  A    between atoms: _284  and  _287
REMARK  126  A    between atoms: _287  and  _288
REMARK  127  A    between atoms: _288  and  _289
REMARK  128  A    between atoms: _289  and  _290
REMARK  129  A    between atoms: _290  and  _291
REMARK  130  A    between atoms: _295  and  _297
REMARK  131  A    between atoms: _297  and  _298
REMARK  132  A    between atoms: _300  and  _302
REMARK  133  A    between atoms: _302  and  _303
REMARK  134  A    between atoms: _302  and  _305
REMARK  135  A    between atoms: _305  and  _306
REMARK  136  A    between atoms: _309  and  _311
REMARK  137  A    between atoms: _311  and  _312
REMARK  138  A    between atoms: _311  and  _314
REMARK  139  A    between atoms: _314  and  _315
REMARK  140  A    between atoms: _321  and  _323
REMARK  141  A    between atoms: _323  and  _324
REMARK  142  A    between atoms: _326  and  _328
REMARK  143  A    between atoms: _328  and  _329
REMARK  144  A    between atoms: _328  and  _331
REMARK  145  A    between atoms: _334  and  _336
REMARK  146  A    between atoms: _336  and  _337
REMARK  147  A    between atoms: _339  and  _341
REMARK  148  A    between atoms: _341  and  _342
REMARK  149  A    between atoms: _341  and  _344
REMARK  150  A    between atoms: _344  and  _345
REMARK  151  A    between atoms: _351  and  _353
REMARK  152  A    between atoms: _353  and  _354
REMARK  153  A    between atoms: _353  and  _356
REMARK  154  A    between atoms: _356  and  _357
REMARK  155  A    between atoms: _362  and  _363
REMARK  156  A    between atoms: _365  and  _367
REMARK  157  A    between atoms: _367  and  _368
REMARK  158  A    between atoms: _367  and  _370
REMARK  159  A    between atoms: _370  and  _371
REMARK  160  A    between atoms: _376  and  _377
REMARK  161  A    between atoms: _379  and  _381
REMARK  162  A    between atoms: _381  and  _382
REMARK  163  A    between atoms: _381  and  _384
REMARK  164  A    between atoms: _387  and  _389
REMARK  165  A    between atoms: _389  and  _390
REMARK  166  A    between atoms: _389  and  _392
REMARK  167  A    between atoms: _392  and  _393
REMARK  168  A    between atoms: _396  and  _398
REMARK  169  A    between atoms: _398  and  _399
REMARK  170  A    between atoms: _398  and  _401
REMARK  171  A    between atoms: _404  and  _406
REMARK  172  A    between atoms: _406  and  _407
REMARK  173  A    between atoms: _406  and  _409
REMARK  174  A    between atoms: _409  and  _410
REMARK  175  A    between atoms: _413  and  _415
REMARK  176  A    between atoms: _415  and  _416
REMARK  177  A    between atoms: _415  and  _418
REMARK  178  A    between atoms: _418  and  _419
REMARK  179  A    between atoms: _422  and  _424
REMARK  180  A    between atoms: _424  and  _425
REMARK  181  A    between atoms: _424  and  _427
REMARK  182  A    between atoms: _427  and  _428
REMARK  183  A    between atoms: _433  and  _435
REMARK  184  A    between atoms: _435  and  _436
REMARK  185  A    between atoms: _435  and  _438
REMARK  186  A    between atoms: _438  and  _439
REMARK  187  A    between atoms: _444  and  _445
REMARK  188  A    between atoms: _447  and  _449
REMARK  189  A    between atoms: _449  and  _450
REMARK  190  A    between atoms: _453  and  _455
REMARK  191  A    between atoms: _455  and  _456
REMARK  192  A    between atoms: _455  and  _458
REMARK  193  A    between atoms: _458  and  _459
REMARK  194  A    between atoms: _469  and  _471
REMARK  195  A    between atoms: _471  and  _472
REMARK  196  A    between atoms: _471  and  _474
REMARK  197  A    between atoms: _474  and  _475
REMARK  198  A    between atoms: _475  and  _476
REMARK  199  A    between atoms: _479  and  _481
REMARK  200  A    between atoms: _481  and  _482
REMARK  201  A    between atoms: _481  and  _484
REMARK  202  A    between atoms: _484  and  _485
REMARK  203  A    between atoms: _487  and  _489
REMARK  204  A    between atoms: _489  and  _490
REMARK  205  A    between atoms: _489  and  _492
REMARK  206  A    between atoms: _492  and  _493
REMARK  207  A    between atoms: _499  and  _501
REMARK  208  A    between atoms: _501  and  _502
REMARK  209  A    between atoms: _501  and  _504
REMARK  210  A    between atoms: _504  and  _505
REMARK  211  A    between atoms: _508  and  _510
REMARK  212  A    between atoms: _510  and  _511
REMARK  213  A    between atoms: _510  and  _513
REMARK  214  A    between atoms: _516  and  _518
REMARK  215  A    between atoms: _518  and  _519
REMARK  216  A    between atoms: _518  and  _521
REMARK  217  A    between atoms: _521  and  _522
REMARK  218  A    between atoms: _525  and  _527
REMARK  219  A    between atoms: _527  and  _528
REMARK  220  A    between atoms: _527  and  _530
REMARK  221  A    between atoms: _530  and  _531
REMARK  222  A    between atoms: _531  and  _532
REMARK  223  A    between atoms: _532  and  _533
REMARK  224  A    between atoms: _533  and  _534
REMARK  225  A    between atoms: _538  and  _540
REMARK  226  A    between atoms: _540  and  _541
REMARK  227  A    between atoms: _540  and  _543
REMARK  228  A    between atoms: _546  and  _548
REMARK  229  A    between atoms: _548  and  _549
REMARK  230  A    between atoms: _548  and  _551
REMARK  231  A    between atoms: _551  and  _552
REMARK                            x       y       z     vdW  Elec       q    Type
REMARK                         _______ _______ _______ _____ _____    ______ ____
ROOT
ATOM      1  O   HOH     1      -0.051   7.986  23.868  0.00  0.00    +0.000 OA
ENDROOT
TORSDOF 0
REMARK  Name = ../refined-set-2016/4cwt/4cwt_pocket.pdb
REMARK  231 active torsions:
REMARK  status: ('A' for Active; 'I' for Inactive)
REMARK    1  A    between atoms: _1  and  _3
REMARK    2  A    between atoms: _3  and  _4
REMARK    3  A    between atoms: _3  and  _6
REMARK    4  A    between atoms: _6  and  _7
REMARK    5  A    between atoms: _13  and  _15
REMARK    6  A    between atoms: _15  and  _16
REMARK    7  A    between atoms: _19  and  _21
REMARK    8  A    between atoms: _21  and  _22
REMARK    9  A    between atoms: _21  and  _24
REMARK   10  A    between atoms: _24  and  _25
REMARK   11  A    between atoms: _31  and  _33
REMARK   12  A    between atoms: _33  and  _34
REMARK   13  A    between atoms: _33  and  _36
REMARK   14  A    between atoms: _36  and  _37
REMARK   15  A    between atoms: _37  and  _38
REMARK   16  A    between atoms: _43  and  _45
REMARK   17  A    between atoms: _45  and  _46
REMARK   18  A    between atoms: _45  and  _48
REMARK   19  A    between atoms: _48  and  _49
REMARK   20  A    between atoms: _52  and  _54
REMARK   21  A    between atoms: _54  and  _55
REMARK   22  A    between atoms: _54  and  _57
REMARK   23  A    between atoms: _57  and  _58
REMARK   24  A    between atoms: _61  and  _63
REMARK   25  A    between atoms: _63  and  _64
REMARK   26  A    between atoms: _63  and  _66
REMARK   27  A    between atoms: _66  and  _67
REMARK   28  A    between atoms: _67  and  _68
REMARK   29  A    between atoms: _70  and  _72
REMARK   30  A    between atoms: _72  and  _73
REMARK   31  A    between atoms: _72  and  _75
REMARK   32  A    between atoms: _75  and  _76
REMARK   33  A    between atoms: _76  and  _77
REMARK   34  A    between atoms: _80  and  _82
REMARK   35  A    between atoms: _82  and  _83
REMARK   36  A    between atoms: _82  and  _85
REMARK   37  A    between atoms: _85  and  _86
REMARK   38  A    between atoms: _89  and  _91
REMARK   39  A    between atoms: _91  and  _92
REMARK   40  A    between atoms: _91  and  _94
REMARK   41  A    between atoms: _94  and  _95
REMARK   42  A    between atoms: _97  and  _99
REMARK   43  A    between atoms: _99  and  _100
REMARK   44  A    between atoms: _99  and  _102
REMARK   45  A    between atoms: _102  and  _103
REMARK   46  A    between atoms: _108  and  _110
REMARK   47  A    between atoms: _110  and  _111
REMARK   48  A    between atoms: _110  and  _113
REMARK   49  A    between atoms: _113  and  _114
REMARK   50  A    between atoms: _116  and  _118
REMARK   51  A    between atoms: _118  and  _119
REMARK   52  A    between atoms: _118  and  _121
REMARK   53  A    between atoms: _121  and  _122
REMARK   54  A    between atoms: _125  and  _127
REMARK   55  A    between atoms: _127  and  _128
REMARK   56  A    between atoms: _131  and  _133
REMARK   57  A    between atoms: _133  and  _134
REMARK   58  A    between atoms: _133  and  _136
REMARK   59  A    between atoms: _136  and  _137
REMARK   60  A    between atoms: _137  and  _138
REMARK   61  A    between atoms: _138  and  _139
REMARK   62  A    between atoms: _139  and  _140
REMARK   63  A    between atoms: _144  and  _146
REMARK   64  A    between atoms: _146  and  _147
REMARK   65  A    between atoms: _146  and  _149
REMARK   66  A    between atoms: _149  and  _150
REMARK   67  A    between atoms: _153  and  _155
REMARK   68  A    between atoms: _155  and  _156
REMARK   69  A    between atoms: _158  and  _160
REMARK   70  A    between atoms: _160  and  _161
REMARK   71  A    between atoms: _160  and  _163
REMARK   72  A    between atoms: _163  and  _164
REMARK   73  A    between atoms: _164  and  _165
REMARK   74  A    between atoms: _167  and  _169
REMARK   75  A    between atoms: _169  and  _170
REMARK   76  A    between atoms: _169  and  _172
REMARK   77  A    between atoms: _172  and  _173
REMARK   78  A    between atoms: _176  and  _178
REMARK   79  A    between atoms: _178  and  _179
REMARK   80  A    between atoms: _178  and  _181
REMARK   81  A    between atoms: _181  and  _182
REMARK   82  A    between atoms: _182  and  _183
REMARK   83  A    between atoms: _183  and  _184
REMARK   84  A    between atoms: _184  and  _185
REMARK   85  A    between atoms: _189  and  _191
REMARK   86  A    between atoms: _191  and  _192
REMARK   87  A    between atoms: _195  and  _197
REMARK   88  A    between atoms: _197  and  _198
REMARK   89  A    between atoms: _197  and  _200
REMARK   90  A    between atoms: _200  and  _201
REMARK   91  A    between atoms: _204  and  _206
REMARK   92  A    between atoms: _206  and  _207
REMARK   93  A    between atoms: _206  and  _209
REMARK   94  A    between atoms: _209  and  _210
REMARK   95  A    between atoms: _213  and  _215
REMARK   96  A    between atoms: _215  and  _216
REMARK   97  A    between atoms: _215  and  _218
REMARK   98  A    between atoms: _218  and  _219
REMARK   99  A    between atoms: _222  and  _224
REMARK  100  A    between atoms: _224  and  _225
REMARK  101  A    between atoms: _224  and  _227
REMARK  102  A    between atoms: _227  and  _228
REMARK  103  A    between atoms: _233  and  _235
REMARK  104  A    between atoms: _235  and  _236
REMARK  105  A    between atoms: _235  and  _238
REMARK  106  A    between atoms: _238  and  _239
REMARK  107  A    between atoms: _244  and  _246
REMARK  108  A    between atoms: _246  and  _247
REMARK  109  A    between atoms: _246  and  _249
REMARK  110  A    between atoms: _249  and  _250
REMARK  111  A    between atoms: _253  and  _255
REMARK  112  A    between atoms: _255  and  _256
REMARK  113  A    between atoms: _258  and  _260
REMARK  114  A    between atoms: _260  and  _261
REMARK  115  A    between atoms: _260  and  _263
REMARK  116  A    between atoms: _263  and  _264
REMARK  117  A    between atoms: _267  and  _269
REMARK  118  A    between atoms: _269  and  _270
REMARK  119  A    between atoms: _269  and  _272
REMARK  120  A    between atoms: _272  and  _273
REMARK  121  A    between atoms: _276  and  _278
REMARK  122  A    between atoms: _278  and  _279
REMARK  123  A    between atoms: _282  and  _284
REMARK  124  A    between atoms: _284  and  _285
REMARK  125  A    between atoms: _284  and  _287
REMARK  126  A    between atoms: _287  and  _288
REMARK  127  A    between atoms: _288  and  _289
REMARK  128  A    between atoms: _289  and  _290
REMARK  129  A    between atoms: _290  and  _291
REMARK  130  A    between atoms: _295  and  _297
REMARK  131  A    between atoms: _297  and  _298
REMARK  132  A    between atoms: _300  and  _302
REMARK  133  A    between atoms: _302  and  _303
REMARK  134  A    between atoms: _302  and  _305
REMARK  135  A    between atoms: _305  and  _306
REMARK  136  A    between atoms: _309  and  _311
REMARK  137  A    between atoms: _311  and  _312
REMARK  138  A    between atoms: _311  and  _314
REMARK  139  A    between atoms: _314  and  _315
REMARK  140  A    between atoms: _321  and  _323
REMARK  141  A    between atoms: _323  and  _324
REMARK  142  A    between atoms: _326  and  _328
REMARK  143  A    between atoms: _328  and  _329
REMARK  144  A    between atoms: _328  and  _331
REMARK  145  A    between atoms: _334  and  _336
REMARK  146  A    between atoms: _336  and  _337
REMARK  147  A    between atoms: _339  and  _341
REMARK  148  A    between atoms: _341  and  _342
REMARK  149  A    between atoms: _341  and  _344
REMARK  150  A    between atoms: _344  and  _345
REMARK  151  A    between atoms: _351  and  _353
REMARK  152  A    between atoms: _353  and  _354
REMARK  153  A    between atoms: _353  and  _356
REMARK  154  A    between atoms: _356  and  _357
REMARK  155  A    between atoms: _362  and  _363
REMARK  156  A    between atoms: _365  and  _367
REMARK  157  A    between atoms: _367  and  _368
REMARK  158  A    between atoms: _367  and  _370
REMARK  159  A    between atoms: _370  and  _371
REMARK  160  A    between atoms: _376  and  _377
REMARK  161  A    between atoms: _379  and  _381
REMARK  162  A    between atoms: _381  and  _382
REMARK  163  A    between atoms: _381  and  _384
REMARK  164  A    between atoms: _387  and  _389
REMARK  165  A    between atoms: _389  and  _390
REMARK  166  A    between atoms: _389  and  _392
REMARK  167  A    between atoms: _392  and  _393
REMARK  168  A    between atoms: _396  and  _398
REMARK  169  A    between atoms: _398  and  _399
REMARK  170  A    between atoms: _398  and  _401
REMARK  171  A    between atoms: _404  and  _406
REMARK  172  A    between atoms: _406  and  _407
REMARK  173  A    between atoms: _406  and  _409
REMARK  174  A    between atoms: _409  and  _410
REMARK  175  A    between atoms: _413  and  _415
REMARK  176  A    between atoms: _415  and  _416
REMARK  177  A    between atoms: _415  and  _418
REMARK  178  A    between atoms: _418  and  _419
REMARK  179  A    between atoms: _422  and  _424
REMARK  180  A    between atoms: _424  and  _425
REMARK  181  A    between atoms: _424  and  _427
REMARK  182  A    between atoms: _427  and  _428
REMARK  183  A    between atoms: _433  and  _435
REMARK  184  A    between atoms: _435  and  _436
REMARK  185  A    between atoms: _435  and  _438
REMARK  186  A    between atoms: _438  and  _439
REMARK  187  A    between atoms: _444  and  _445
REMARK  188  A    between atoms: _447  and  _449
REMARK  189  A    between atoms: _449  and  _450
REMARK  190  A    between atoms: _453  and  _455
REMARK  191  A    between atoms: _455  and  _456
REMARK  192  A    between atoms: _455  and  _458
REMARK  193  A    between atoms: _458  and  _459
REMARK  194  A    between atoms: _469  and  _471
REMARK  195  A    between atoms: _471  and  _472
REMARK  196  A    between atoms: _471  and  _474
REMARK  197  A    between atoms: _474  and  _475
REMARK  198  A    between atoms: _475  and  _476
REMARK  199  A    between atoms: _479  and  _481
REMARK  200  A    between atoms: _481  and  _482
REMARK  201  A    between atoms: _481  and  _484
REMARK  202  A    between atoms: _484  and  _485
REMARK  203  A    between atoms: _487  and  _489
REMARK  204  A    between atoms: _489  and  _490
REMARK  205  A    between atoms: _489  and  _492
REMARK  206  A    between atoms: _492  and  _493
REMARK  207  A    between atoms: _499  and  _501
REMARK  208  A    between atoms: _501  and  _502
REMARK  209  A    between atoms: _501  and  _504
REMARK  210  A    between atoms: _504  and  _505
REMARK  211  A    between atoms: _508  and  _510
REMARK  212  A    between atoms: _510  and  _511
REMARK  213  A    between atoms: _510  and  _513
REMARK  214  A    between atoms: _516  and  _518
REMARK  215  A    between atoms: _518  and  _519
REMARK  216  A    between atoms: _518  and  _521
REMARK  217  A    between atoms: _521  and  _522
REMARK  218  A    between atoms: _525  and  _527
REMARK  219  A    between atoms: _527  and  _528
REMARK  220  A    between atoms: _527  and  _530
REMARK  221  A    between atoms: _530  and  _531
REMARK  222  A    between atoms: _531  and  _532
REMARK  223  A    between atoms: _532  and  _533
REMARK  224  A    between atoms: _533  and  _534
REMARK  225  A    between atoms: _538  and  _540
REMARK  226  A    between atoms: _540  and  _541
REMARK  227  A    between atoms: _540  and  _543
REMARK  228  A    between atoms: _546  and  _548
REMARK  229  A    between atoms: _548  and  _549
REMARK  230  A    between atoms: _548  and  _551
REMARK  231  A    between atoms: _551  and  _552
REMARK                            x       y       z     vdW  Elec       q    Type
REMARK                         _______ _______ _______ _____ _____    ______ ____
ROOT
ATOM      1  O   HOH     1      -2.577  11.515  23.576  0.00  0.00    +0.000 OA
ENDROOT
TORSDOF 0
REMARK  Name = ../refined-set-2016/4cwt/4cwt_pocket.pdb
REMARK  231 active torsions:
REMARK  status: ('A' for Active; 'I' for Inactive)
REMARK    1  A    between atoms: _1  and  _3
REMARK    2  A    between atoms: _3  and  _4
REMARK    3  A    between atoms: _3  and  _6
REMARK    4  A    between atoms: _6  and  _7
REMARK    5  A    between atoms: _13  and  _15
REMARK    6  A    between atoms: _15  and  _16
REMARK    7  A    between atoms: _19  and  _21
REMARK    8  A    between atoms: _21  and  _22
REMARK    9  A    between atoms: _21  and  _24
REMARK   10  A    between atoms: _24  and  _25
REMARK   11  A    between atoms: _31  and  _33
REMARK   12  A    between atoms: _33  and  _34
REMARK   13  A    between atoms: _33  and  _36
REMARK   14  A    between atoms: _36  and  _37
REMARK   15  A    between atoms: _37  and  _38
REMARK   16  A    between atoms: _43  and  _45
REMARK   17  A    between atoms: _45  and  _46
REMARK   18  A    between atoms: _45  and  _48
REMARK   19  A    between atoms: _48  and  _49
REMARK   20  A    between atoms: _52  and  _54
REMARK   21  A    between atoms: _54  and  _55
REMARK   22  A    between atoms: _54  and  _57
REMARK   23  A    between atoms: _57  and  _58
REMARK   24  A    between atoms: _61  and  _63
REMARK   25  A    between atoms: _63  and  _64
REMARK   26  A    between atoms: _63  and  _66
REMARK   27  A    between atoms: _66  and  _67
REMARK   28  A    between atoms: _67  and  _68
REMARK   29  A    between atoms: _70  and  _72
REMARK   30  A    between atoms: _72  and  _73
REMARK   31  A    between atoms: _72  and  _75
REMARK   32  A    between atoms: _75  and  _76
REMARK   33  A    between atoms: _76  and  _77
REMARK   34  A    between atoms: _80  and  _82
REMARK   35  A    between atoms: _82  and  _83
REMARK   36  A    between atoms: _82  and  _85
REMARK   37  A    between atoms: _85  and  _86
REMARK   38  A    between atoms: _89  and  _91
REMARK   39  A    between atoms: _91  and  _92
REMARK   40  A    between atoms: _91  and  _94
REMARK   41  A    between atoms: _94  and  _95
REMARK   42  A    between atoms: _97  and  _99
REMARK   43  A    between atoms: _99  and  _100
REMARK   44  A    between atoms: _99  and  _102
REMARK   45  A    between atoms: _102  and  _103
REMARK   46  A    between atoms: _108  and  _110
REMARK   47  A    between atoms: _110  and  _111
REMARK   48  A    between atoms: _110  and  _113
REMARK   49  A    between atoms: _113  and  _114
REMARK   50  A    between atoms: _116  and  _118
REMARK   51  A    between atoms: _118  and  _119
REMARK   52  A    between atoms: _118  and  _121
REMARK   53  A    between atoms: _121  and  _122
REMARK   54  A    between atoms: _125  and  _127
REMARK   55  A    between atoms: _127  and  _128
REMARK   56  A    between atoms: _131  and  _133
REMARK   57  A    between atoms: _133  and  _134
REMARK   58  A    between atoms: _133  and  _136
REMARK   59  A    between atoms: _136  and  _137
REMARK   60  A    between atoms: _137  and  _138
REMARK   61  A    between atoms: _138  and  _139
REMARK   62  A    between atoms: _139  and  _140
REMARK   63  A    between atoms: _144  and  _146
REMARK   64  A    between atoms: _146  and  _147
REMARK   65  A    between atoms: _146  and  _149
REMARK   66  A    between atoms: _149  and  _150
REMARK   67  A    between atoms: _153  and  _155
REMARK   68  A    between atoms: _155  and  _156
REMARK   69  A    between atoms: _158  and  _160
REMARK   70  A    between atoms: _160  and  _161
REMARK   71  A    between atoms: _160  and  _163
REMARK   72  A    between atoms: _163  and  _164
REMARK   73  A    between atoms: _164  and  _165
REMARK   74  A    between atoms: _167  and  _169
REMARK   75  A    between atoms: _169  and  _170
REMARK   76  A    between atoms: _169  and  _172
REMARK   77  A    between atoms: _172  and  _173
REMARK   78  A    between atoms: _176  and  _178
REMARK   79  A    between atoms: _178  and  _179
REMARK   80  A    between atoms: _178  and  _181
REMARK   81  A    between atoms: _181  and  _182
REMARK   82  A    between atoms: _182  and  _183
REMARK   83  A    between atoms: _183  and  _184
REMARK   84  A    between atoms: _184  and  _185
REMARK   85  A    between atoms: _189  and  _191
REMARK   86  A    between atoms: _191  and  _192
REMARK   87  A    between atoms: _195  and  _197
REMARK   88  A    between atoms: _197  and  _198
REMARK   89  A    between atoms: _197  and  _200
REMARK   90  A    between atoms: _200  and  _201
REMARK   91  A    between atoms: _204  and  _206
REMARK   92  A    between atoms: _206  and  _207
REMARK   93  A    between atoms: _206  and  _209
REMARK   94  A    between atoms: _209  and  _210
REMARK   95  A    between atoms: _213  and  _215
REMARK   96  A    between atoms: _215  and  _216
REMARK   97  A    between atoms: _215  and  _218
REMARK   98  A    between atoms: _218  and  _219
REMARK   99  A    between atoms: _222  and  _224
REMARK  100  A    between atoms: _224  and  _225
REMARK  101  A    between atoms: _224  and  _227
REMARK  102  A    between atoms: _227  and  _228
REMARK  103  A    between atoms: _233  and  _235
REMARK  104  A    between atoms: _235  and  _236
REMARK  105  A    between atoms: _235  and  _238
REMARK  106  A    between atoms: _238  and  _239
REMARK  107  A    between atoms: _244  and  _246
REMARK  108  A    between atoms: _246  and  _247
REMARK  109  A    between atoms: _246  and  _249
REMARK  110  A    between atoms: _249  and  _250
REMARK  111  A    between atoms: _253  and  _255
REMARK  112  A    between atoms: _255  and  _256
REMARK  113  A    between atoms: _258  and  _260
REMARK  114  A    between atoms: _260  and  _261
REMARK  115  A    between atoms: _260  and  _263
REMARK  116  A    between atoms: _263  and  _264
REMARK  117  A    between atoms: _267  and  _269
REMARK  118  A    between atoms: _269  and  _270
REMARK  119  A    between atoms: _269  and  _272
REMARK  120  A    between atoms: _272  and  _273
REMARK  121  A    between atoms: _276  and  _278
REMARK  122  A    between atoms: _278  and  _279
REMARK  123  A    between atoms: _282  and  _284
REMARK  124  A    between atoms: _284  and  _285
REMARK  125  A    between atoms: _284  and  _287
REMARK  126  A    between atoms: _287  and  _288
REMARK  127  A    between atoms: _288  and  _289
REMARK  128  A    between atoms: _289  and  _290
REMARK  129  A    between atoms: _290  and  _291
REMARK  130  A    between atoms: _295  and  _297
REMARK  131  A    between atoms: _297  and  _298
REMARK  132  A    between atoms: _300  and  _302
REMARK  133  A    between atoms: _302  and  _303
REMARK  134  A    between atoms: _302  and  _305
REMARK  135  A    between atoms: _305  and  _306
REMARK  136  A    between atoms: _309  and  _311
REMARK  137  A    between atoms: _311  and  _312
REMARK  138  A    between atoms: _311  and  _314
REMARK  139  A    between atoms: _314  and  _315
REMARK  140  A    between atoms: _321  and  _323
REMARK  141  A    between atoms: _323  and  _324
REMARK  142  A    between atoms: _326  and  _328
REMARK  143  A    between atoms: _328  and  _329
REMARK  144  A    between atoms: _328  and  _331
REMARK  145  A    between atoms: _334  and  _336
REMARK  146  A    between atoms: _336  and  _337
REMARK  147  A    between atoms: _339  and  _341
REMARK  148  A    between atoms: _341  and  _342
REMARK  149  A    between atoms: _341  and  _344
REMARK  150  A    between atoms: _344  and  _345
REMARK  151  A    between atoms: _351  and  _353
REMARK  152  A    between atoms: _353  and  _354
REMARK  153  A    between atoms: _353  and  _356
REMARK  154  A    between atoms: _356  and  _357
REMARK  155  A    between atoms: _362  and  _363
REMARK  156  A    between atoms: _365  and  _367
REMARK  157  A    between atoms: _367  and  _368
REMARK  158  A    between atoms: _367  and  _370
REMARK  159  A    between atoms: _370  and  _371
REMARK  160  A    between atoms: _376  and  _377
REMARK  161  A    between atoms: _379  and  _381
REMARK  162  A    between atoms: _381  and  _382
REMARK  163  A    between atoms: _381  and  _384
REMARK  164  A    between atoms: _387  and  _389
REMARK  165  A    between atoms: _389  and  _390
REMARK  166  A    between atoms: _389  and  _392
REMARK  167  A    between atoms: _392  and  _393
REMARK  168  A    between atoms: _396  and  _398
REMARK  169  A    between atoms: _398  and  _399
REMARK  170  A    between atoms: _398  and  _401
REMARK  171  A    between atoms: _404  and  _406
REMARK  172  A    between atoms: _406  and  _407
REMARK  173  A    between atoms: _406  and  _409
REMARK  174  A    between atoms: _409  and  _410
REMARK  175  A    between atoms: _413  and  _415
REMARK  176  A    between atoms: _415  and  _416
REMARK  177  A    between atoms: _415  and  _418
REMARK  178  A    between atoms: _418  and  _419
REMARK  179  A    between atoms: _422  and  _424
REMARK  180  A    between atoms: _424  and  _425
REMARK  181  A    between atoms: _424  and  _427
REMARK  182  A    between atoms: _427  and  _428
REMARK  183  A    between atoms: _433  and  _435
REMARK  184  A    between atoms: _435  and  _436
REMARK  185  A    between atoms: _435  and  _438
REMARK  186  A    between atoms: _438  and  _439
REMARK  187  A    between atoms: _444  and  _445
REMARK  188  A    between atoms: _447  and  _449
REMARK  189  A    between atoms: _449  and  _450
REMARK  190  A    between atoms: _453  and  _455
REMARK  191  A    between atoms: _455  and  _456
REMARK  192  A    between atoms: _455  and  _458
REMARK  193  A    between atoms: _458  and  _459
REMARK  194  A    between atoms: _469  and  _471
REMARK  195  A    between atoms: _471  and  _472
REMARK  196  A    between atoms: _471  and  _474
REMARK  197  A    between atoms: _474  and  _475
REMARK  198  A    between atoms: _475  and  _476
REMARK  199  A    between atoms: _479  and  _481
REMARK  200  A    between atoms: _481  and  _482
REMARK  201  A    between atoms: _481  and  _484
REMARK  202  A    between atoms: _484  and  _485
REMARK  203  A    between atoms: _487  and  _489
REMARK  204  A    between atoms: _489  and  _490
REMARK  205  A    between atoms: _489  and  _492
REMARK  206  A    between atoms: _492  and  _493
REMARK  207  A    between atoms: _499  and  _501
REMARK  208  A    between atoms: _501  and  _502
REMARK  209  A    between atoms: _501  and  _504
REMARK  210  A    between atoms: _504  and  _505
REMARK  211  A    between atoms: _508  and  _510
REMARK  212  A    between atoms: _510  and  _511
REMARK  213  A    between atoms: _510  and  _513
REMARK  214  A    between atoms: _516  and  _518
REMARK  215  A    between atoms: _518  and  _519
REMARK  216  A    between atoms: _518  and  _521
REMARK  217  A    between atoms: _521  and  _522
REMARK  218  A    between atoms: _525  and  _527
REMARK  219  A    between atoms: _527  and  _528
REMARK  220  A    between atoms: _527  and  _530
REMARK  221  A    between atoms: _530  and  _531
REMARK  222  A    between atoms: _531  and  _532
REMARK  223  A    between atoms: _532  and  _533
REMARK  224  A    between atoms: _533  and  _534
REMARK  225  A    between atoms: _538  and  _540
REMARK  226  A    between atoms: _540  and  _541
REMARK  227  A    between atoms: _540  and  _543
REMARK  228  A    between atoms: _546  and  _548
REMARK  229  A    between atoms: _548  and  _549
REMARK  230  A    between atoms: _548  and  _551
REMARK  231  A    between atoms: _551  and  _552
REMARK                            x       y       z     vdW  Elec       q    Type
REMARK                         _______ _______ _______ _____ _____    ______ ____
ROOT
ATOM      1  O   HOH     1       1.513   6.217  22.287  0.00  0.00    +0.000 OA
ENDROOT
TORSDOF 0
REMARK  Name = ../refined-set-2016/4cwt/4cwt_pocket.pdb
REMARK  231 active torsions:
REMARK  status: ('A' for Active; 'I' for Inactive)
REMARK    1  A    between atoms: _1  and  _3
REMARK    2  A    between atoms: _3  and  _4
REMARK    3  A    between atoms: _3  and  _6
REMARK    4  A    between atoms: _6  and  _7
REMARK    5  A    between atoms: _13  and  _15
REMARK    6  A    between atoms: _15  and  _16
REMARK    7  A    between atoms: _19  and  _21
REMARK    8  A    between atoms: _21  and  _22
REMARK    9  A    between atoms: _21  and  _24
REMARK   10  A    between atoms: _24  and  _25
REMARK   11  A    between atoms: _31  and  _33
REMARK   12  A    between atoms: _33  and  _34
REMARK   13  A    between atoms: _33  and  _36
REMARK   14  A    between atoms: _36  and  _37
REMARK   15  A    between atoms: _37  and  _38
REMARK   16  A    between atoms: _43  and  _45
REMARK   17  A    between atoms: _45  and  _46
REMARK   18  A    between atoms: _45  and  _48
REMARK   19  A    between atoms: _48  and  _49
REMARK   20  A    between atoms: _52  and  _54
REMARK   21  A    between atoms: _54  and  _55
REMARK   22  A    between atoms: _54  and  _57
REMARK   23  A    between atoms: _57  and  _58
REMARK   24  A    between atoms: _61  and  _63
REMARK   25  A    between atoms: _63  and  _64
REMARK   26  A    between atoms: _63  and  _66
REMARK   27  A    between atoms: _66  and  _67
REMARK   28  A    between atoms: _67  and  _68
REMARK   29  A    between atoms: _70  and  _72
REMARK   30  A    between atoms: _72  and  _73
REMARK   31  A    between atoms: _72  and  _75
REMARK   32  A    between atoms: _75  and  _76
REMARK   33  A    between atoms: _76  and  _77
REMARK   34  A    between atoms: _80  and  _82
REMARK   35  A    between atoms: _82  and  _83
REMARK   36  A    between atoms: _82  and  _85
REMARK   37  A    between atoms: _85  and  _86
REMARK   38  A    between atoms: _89  and  _91
REMARK   39  A    between atoms: _91  and  _92
REMARK   40  A    between atoms: _91  and  _94
REMARK   41  A    between atoms: _94  and  _95
REMARK   42  A    between atoms: _97  and  _99
REMARK   43  A    between atoms: _99  and  _100
REMARK   44  A    between atoms: _99  and  _102
REMARK   45  A    between atoms: _102  and  _103
REMARK   46  A    between atoms: _108  and  _110
REMARK   47  A    between atoms: _110  and  _111
REMARK   48  A    between atoms: _110  and  _113
REMARK   49  A    between atoms: _113  and  _114
REMARK   50  A    between atoms: _116  and  _118
REMARK   51  A    between atoms: _118  and  _119
REMARK   52  A    between atoms: _118  and  _121
REMARK   53  A    between atoms: _121  and  _122
REMARK   54  A    between atoms: _125  and  _127
REMARK   55  A    between atoms: _127  and  _128
REMARK   56  A    between atoms: _131  and  _133
REMARK   57  A    between atoms: _133  and  _134
REMARK   58  A    between atoms: _133  and  _136
REMARK   59  A    between atoms: _136  and  _137
REMARK   60  A    between atoms: _137  and  _138
REMARK   61  A    between atoms: _138  and  _139
REMARK   62  A    between atoms: _139  and  _140
REMARK   63  A    between atoms: _144  and  _146
REMARK   64  A    between atoms: _146  and  _147
REMARK   65  A    between atoms: _146  and  _149
REMARK   66  A    between atoms: _149  and  _150
REMARK   67  A    between atoms: _153  and  _155
REMARK   68  A    between atoms: _155  and  _156
REMARK   69  A    between atoms: _158  and  _160
REMARK   70  A    between atoms: _160  and  _161
REMARK   71  A    between atoms: _160  and  _163
REMARK   72  A    between atoms: _163  and  _164
REMARK   73  A    between atoms: _164  and  _165
REMARK   74  A    between atoms: _167  and  _169
REMARK   75  A    between atoms: _169  and  _170
REMARK   76  A    between atoms: _169  and  _172
REMARK   77  A    between atoms: _172  and  _173
REMARK   78  A    between atoms: _176  and  _178
REMARK   79  A    between atoms: _178  and  _179
REMARK   80  A    between atoms: _178  and  _181
REMARK   81  A    between atoms: _181  and  _182
REMARK   82  A    between atoms: _182  and  _183
REMARK   83  A    between atoms: _183  and  _184
REMARK   84  A    between atoms: _184  and  _185
REMARK   85  A    between atoms: _189  and  _191
REMARK   86  A    between atoms: _191  and  _192
REMARK   87  A    between atoms: _195  and  _197
REMARK   88  A    between atoms: _197  and  _198
REMARK   89  A    between atoms: _197  and  _200
REMARK   90  A    between atoms: _200  and  _201
REMARK   91  A    between atoms: _204  and  _206
REMARK   92  A    between atoms: _206  and  _207
REMARK   93  A    between atoms: _206  and  _209
REMARK   94  A    between atoms: _209  and  _210
REMARK   95  A    between atoms: _213  and  _215
REMARK   96  A    between atoms: _215  and  _216
REMARK   97  A    between atoms: _215  and  _218
REMARK   98  A    between atoms: _218  and  _219
REMARK   99  A    between atoms: _222  and  _224
REMARK  100  A    between atoms: _224  and  _225
REMARK  101  A    between atoms: _224  and  _227
REMARK  102  A    between atoms: _227  and  _228
REMARK  103  A    between atoms: _233  and  _235
REMARK  104  A    between atoms: _235  and  _236
REMARK  105  A    between atoms: _235  and  _238
REMARK  106  A    between atoms: _238  and  _239
REMARK  107  A    between atoms: _244  and  _246
REMARK  108  A    between atoms: _246  and  _247
REMARK  109  A    between atoms: _246  and  _249
REMARK  110  A    between atoms: _249  and  _250
REMARK  111  A    between atoms: _253  and  _255
REMARK  112  A    between atoms: _255  and  _256
REMARK  113  A    between atoms: _258  and  _260
REMARK  114  A    between atoms: _260  and  _261
REMARK  115  A    between atoms: _260  and  _263
REMARK  116  A    between atoms: _263  and  _264
REMARK  117  A    between atoms: _267  and  _269
REMARK  118  A    between atoms: _269  and  _270
REMARK  119  A    between atoms: _269  and  _272
REMARK  120  A    between atoms: _272  and  _273
REMARK  121  A    between atoms: _276  and  _278
REMARK  122  A    between atoms: _278  and  _279
REMARK  123  A    between atoms: _282  and  _284
REMARK  124  A    between atoms: _284  and  _285
REMARK  125  A    between atoms: _284  and  _287
REMARK  126  A    between atoms: _287  and  _288
REMARK  127  A    between atoms: _288  and  _289
REMARK  128  A    between atoms: _289  and  _290
REMARK  129  A    between atoms: _290  and  _291
REMARK  130  A    between atoms: _295  and  _297
REMARK  131  A    between atoms: _297  and  _298
REMARK  132  A    between atoms: _300  and  _302
REMARK  133  A    between atoms: _302  and  _303
REMARK  134  A    between atoms: _302  and  _305
REMARK  135  A    between atoms: _305  and  _306
REMARK  136  A    between atoms: _309  and  _311
REMARK  137  A    between atoms: _311  and  _312
REMARK  138  A    between atoms: _311  and  _314
REMARK  139  A    between atoms: _314  and  _315
REMARK  140  A    between atoms: _321  and  _323
REMARK  141  A    between atoms: _323  and  _324
REMARK  142  A    between atoms: _326  and  _328
REMARK  143  A    between atoms: _328  and  _329
REMARK  144  A    between atoms: _328  and  _331
REMARK  145  A    between atoms: _334  and  _336
REMARK  146  A    between atoms: _336  and  _337
REMARK  147  A    between atoms: _339  and  _341
REMARK  148  A    between atoms: _341  and  _342
REMARK  149  A    between atoms: _341  and  _344
REMARK  150  A    between atoms: _344  and  _345
REMARK  151  A    between atoms: _351  and  _353
REMARK  152  A    between atoms: _353  and  _354
REMARK  153  A    between atoms: _353  and  _356
REMARK  154  A    between atoms: _356  and  _357
REMARK  155  A    between atoms: _362  and  _363
REMARK  156  A    between atoms: _365  and  _367
REMARK  157  A    between atoms: _367  and  _368
REMARK  158  A    between atoms: _367  and  _370
REMARK  159  A    between atoms: _370  and  _371
REMARK  160  A    between atoms: _376  and  _377
REMARK  161  A    between atoms: _379  and  _381
REMARK  162  A    between atoms: _381  and  _382
REMARK  163  A    between atoms: _381  and  _384
REMARK  164  A    between atoms: _387  and  _389
REMARK  165  A    between atoms: _389  and  _390
REMARK  166  A    between atoms: _389  and  _392
REMARK  167  A    between atoms: _392  and  _393
REMARK  168  A    between atoms: _396  and  _398
REMARK  169  A    between atoms: _398  and  _399
REMARK  170  A    between atoms: _398  and  _401
REMARK  171  A    between atoms: _404  and  _406
REMARK  172  A    between atoms: _406  and  _407
REMARK  173  A    between atoms: _406  and  _409
REMARK  174  A    between atoms: _409  and  _410
REMARK  175  A    between atoms: _413  and  _415
REMARK  176  A    between atoms: _415  and  _416
REMARK  177  A    between atoms: _415  and  _418
REMARK  178  A    between atoms: _418  and  _419
REMARK  179  A    between atoms: _422  and  _424
REMARK  180  A    between atoms: _424  and  _425
REMARK  181  A    between atoms: _424  and  _427
REMARK  182  A    between atoms: _427  and  _428
REMARK  183  A    between atoms: _433  and  _435
REMARK  184  A    between atoms: _435  and  _436
REMARK  185  A    between atoms: _435  and  _438
REMARK  186  A    between atoms: _438  and  _439
REMARK  187  A    between atoms: _444  and  _445
REMARK  188  A    between atoms: _447  and  _449
REMARK  189  A    between atoms: _449  and  _450
REMARK  190  A    between atoms: _453  and  _455
REMARK  191  A    between atoms: _455  and  _456
REMARK  192  A    between atoms: _455  and  _458
REMARK  193  A    between atoms: _458  and  _459
REMARK  194  A    between atoms: _469  and  _471
REMARK  195  A    between atoms: _471  and  _472
REMARK  196  A    between atoms: _471  and  _474
REMARK  197  A    between atoms: _474  and  _475
REMARK  198  A    between atoms: _475  and  _476
REMARK  199  A    between atoms: _479  and  _481
REMARK  200  A    between atoms: _481  and  _482
REMARK  201  A    between atoms: _481  and  _484
REMARK  202  A    between atoms: _484  and  _485
REMARK  203  A    between atoms: _487  and  _489
REMARK  204  A    between atoms: _489  and  _490
REMARK  205  A    between atoms: _489  and  _492
REMARK  206  A    between atoms: _492  and  _493
REMARK  207  A    between atoms: _499  and  _501
REMARK  208  A    between atoms: _501  and  _502
REMARK  209  A    between atoms: _501  and  _504
REMARK  210  A    between atoms: _504  and  _505
REMARK  211  A    between atoms: _508  and  _510
REMARK  212  A    between atoms: _510  and  _511
REMARK  213  A    between atoms: _510  and  _513
REMARK  214  A    between atoms: _516  and  _518
REMARK  215  A    between atoms: _518  and  _519
REMARK  216  A    between atoms: _518  and  _521
REMARK  217  A    between atoms: _521  and  _522
REMARK  218  A    between atoms: _525  and  _527
REMARK  219  A    between atoms: _527  and  _528
REMARK  220  A    between atoms: _527  and  _530
REMARK  221  A    between atoms: _530  and  _531
REMARK  222  A    between atoms: _531  and  _532
REMARK  223  A    between atoms: _532  and  _533
REMARK  224  A    between atoms: _533  and  _534
REMARK  225  A    between atoms: _538  and  _540
REMARK  226  A    between atoms: _540  and  _541
REMARK  227  A    between atoms: _540  and  _543
REMARK  228  A    between atoms: _546  and  _548
REMARK  229  A    between atoms: _548  and  _549
REMARK  230  A    between atoms: _548  and  _551
REMARK  231  A    between atoms: _551  and  _552
REMARK                            x       y       z     vdW  Elec       q    Type
REMARK                         _______ _______ _______ _____ _____    ______ ____
ROOT
ATOM      1  O   HOH     1       3.884   6.465  20.824  0.00  0.00    +0.000 OA
ENDROOT
TORSDOF 0
REMARK  Name = ../refined-set-2016/4cwt/4cwt_pocket.pdb
REMARK  231 active torsions:
REMARK  status: ('A' for Active; 'I' for Inactive)
REMARK    1  A    between atoms: _1  and  _3
REMARK    2  A    between atoms: _3  and  _4
REMARK    3  A    between atoms: _3  and  _6
REMARK    4  A    between atoms: _6  and  _7
REMARK    5  A    between atoms: _13  and  _15
REMARK    6  A    between atoms: _15  and  _16
REMARK    7  A    between atoms: _19  and  _21
REMARK    8  A    between atoms: _21  and  _22
REMARK    9  A    between atoms: _21  and  _24
REMARK   10  A    between atoms: _24  and  _25
REMARK   11  A    between atoms: _31  and  _33
REMARK   12  A    between atoms: _33  and  _34
REMARK   13  A    between atoms: _33  and  _36
REMARK   14  A    between atoms: _36  and  _37
REMARK   15  A    between atoms: _37  and  _38
REMARK   16  A    between atoms: _43  and  _45
REMARK   17  A    between atoms: _45  and  _46
REMARK   18  A    between atoms: _45  and  _48
REMARK   19  A    between atoms: _48  and  _49
REMARK   20  A    between atoms: _52  and  _54
REMARK   21  A    between atoms: _54  and  _55
REMARK   22  A    between atoms: _54  and  _57
REMARK   23  A    between atoms: _57  and  _58
REMARK   24  A    between atoms: _61  and  _63
REMARK   25  A    between atoms: _63  and  _64
REMARK   26  A    between atoms: _63  and  _66
REMARK   27  A    between atoms: _66  and  _67
REMARK   28  A    between atoms: _67  and  _68
REMARK   29  A    between atoms: _70  and  _72
REMARK   30  A    between atoms: _72  and  _73
REMARK   31  A    between atoms: _72  and  _75
REMARK   32  A    between atoms: _75  and  _76
REMARK   33  A    between atoms: _76  and  _77
REMARK   34  A    between atoms: _80  and  _82
REMARK   35  A    between atoms: _82  and  _83
REMARK   36  A    between atoms: _82  and  _85
REMARK   37  A    between atoms: _85  and  _86
REMARK   38  A    between atoms: _89  and  _91
REMARK   39  A    between atoms: _91  and  _92
REMARK   40  A    between atoms: _91  and  _94
REMARK   41  A    between atoms: _94  and  _95
REMARK   42  A    between atoms: _97  and  _99
REMARK   43  A    between atoms: _99  and  _100
REMARK   44  A    between atoms: _99  and  _102
REMARK   45  A    between atoms: _102  and  _103
REMARK   46  A    between atoms: _108  and  _110
REMARK   47  A    between atoms: _110  and  _111
REMARK   48  A    between atoms: _110  and  _113
REMARK   49  A    between atoms: _113  and  _114
REMARK   50  A    between atoms: _116  and  _118
REMARK   51  A    between atoms: _118  and  _119
REMARK   52  A    between atoms: _118  and  _121
REMARK   53  A    between atoms: _121  and  _122
REMARK   54  A    between atoms: _125  and  _127
REMARK   55  A    between atoms: _127  and  _128
REMARK   56  A    between atoms: _131  and  _133
REMARK   57  A    between atoms: _133  and  _134
REMARK   58  A    between atoms: _133  and  _136
REMARK   59  A    between atoms: _136  and  _137
REMARK   60  A    between atoms: _137  and  _138
REMARK   61  A    between atoms: _138  and  _139
REMARK   62  A    between atoms: _139  and  _140
REMARK   63  A    between atoms: _144  and  _146
REMARK   64  A    between atoms: _146  and  _147
REMARK   65  A    between atoms: _146  and  _149
REMARK   66  A    between atoms: _149  and  _150
REMARK   67  A    between atoms: _153  and  _155
REMARK   68  A    between atoms: _155  and  _156
REMARK   69  A    between atoms: _158  and  _160
REMARK   70  A    between atoms: _160  and  _161
REMARK   71  A    between atoms: _160  and  _163
REMARK   72  A    between atoms: _163  and  _164
REMARK   73  A    between atoms: _164  and  _165
REMARK   74  A    between atoms: _167  and  _169
REMARK   75  A    between atoms: _169  and  _170
REMARK   76  A    between atoms: _169  and  _172
REMARK   77  A    between atoms: _172  and  _173
REMARK   78  A    between atoms: _176  and  _178
REMARK   79  A    between atoms: _178  and  _179
REMARK   80  A    between atoms: _178  and  _181
REMARK   81  A    between atoms: _181  and  _182
REMARK   82  A    between atoms: _182  and  _183
REMARK   83  A    between atoms: _183  and  _184
REMARK   84  A    between atoms: _184  and  _185
REMARK   85  A    between atoms: _189  and  _191
REMARK   86  A    between atoms: _191  and  _192
REMARK   87  A    between atoms: _195  and  _197
REMARK   88  A    between atoms: _197  and  _198
REMARK   89  A    between atoms: _197  and  _200
REMARK   90  A    between atoms: _200  and  _201
REMARK   91  A    between atoms: _204  and  _206
REMARK   92  A    between atoms: _206  and  _207
REMARK   93  A    between atoms: _206  and  _209
REMARK   94  A    between atoms: _209  and  _210
REMARK   95  A    between atoms: _213  and  _215
REMARK   96  A    between atoms: _215  and  _216
REMARK   97  A    between atoms: _215  and  _218
REMARK   98  A    between atoms: _218  and  _219
REMARK   99  A    between atoms: _222  and  _224
REMARK  100  A    between atoms: _224  and  _225
REMARK  101  A    between atoms: _224  and  _227
REMARK  102  A    between atoms: _227  and  _228
REMARK  103  A    between atoms: _233  and  _235
REMARK  104  A    between atoms: _235  and  _236
REMARK  105  A    between atoms: _235  and  _238
REMARK  106  A    between atoms: _238  and  _239
REMARK  107  A    between atoms: _244  and  _246
REMARK  108  A    between atoms: _246  and  _247
REMARK  109  A    between atoms: _246  and  _249
REMARK  110  A    between atoms: _249  and  _250
REMARK  111  A    between atoms: _253  and  _255
REMARK  112  A    between atoms: _255  and  _256
REMARK  113  A    between atoms: _258  and  _260
REMARK  114  A    between atoms: _260  and  _261
REMARK  115  A    between atoms: _260  and  _263
REMARK  116  A    between atoms: _263  and  _264
REMARK  117  A    between atoms: _267  and  _269
REMARK  118  A    between atoms: _269  and  _270
REMARK  119  A    between atoms: _269  and  _272
REMARK  120  A    between atoms: _272  and  _273
REMARK  121  A    between atoms: _276  and  _278
REMARK  122  A    between atoms: _278  and  _279
REMARK  123  A    between atoms: _282  and  _284
REMARK  124  A    between atoms: _284  and  _285
REMARK  125  A    between atoms: _284  and  _287
REMARK  126  A    between atoms: _287  and  _288
REMARK  127  A    between atoms: _288  and  _289
REMARK  128  A    between atoms: _289  and  _290
REMARK  129  A    between atoms: _290  and  _291
REMARK  130  A    between atoms: _295  and  _297
REMARK  131  A    between atoms: _297  and  _298
REMARK  132  A    between atoms: _300  and  _302
REMARK  133  A    between atoms: _302  and  _303
REMARK  134  A    between atoms: _302  and  _305
REMARK  135  A    between atoms: _305  and  _306
REMARK  136  A    between atoms: _309  and  _311
REMARK  137  A    between atoms: _311  and  _312
REMARK  138  A    between atoms: _311  and  _314
REMARK  139  A    between atoms: _314  and  _315
REMARK  140  A    between atoms: _321  and  _323
REMARK  141  A    between atoms: _323  and  _324
REMARK  142  A    between atoms: _326  and  _328
REMARK  143  A    between atoms: _328  and  _329
REMARK  144  A    between atoms: _328  and  _331
REMARK  145  A    between atoms: _334  and  _336
REMARK  146  A    between atoms: _336  and  _337
REMARK  147  A    between atoms: _339  and  _341
REMARK  148  A    between atoms: _341  and  _342
REMARK  149  A    between atoms: _341  and  _344
REMARK  150  A    between atoms: _344  and  _345
REMARK  151  A    between atoms: _351  and  _353
REMARK  152  A    between atoms: _353  and  _354
REMARK  153  A    between atoms: _353  and  _356
REMARK  154  A    between atoms: _356  and  _357
REMARK  155  A    between atoms: _362  and  _363
REMARK  156  A    between atoms: _365  and  _367
REMARK  157  A    between atoms: _367  and  _368
REMARK  158  A    between atoms: _367  and  _370
REMARK  159  A    between atoms: _370  and  _371
REMARK  160  A    between atoms: _376  and  _377
REMARK  161  A    between atoms: _379  and  _381
REMARK  162  A    between atoms: _381  and  _382
REMARK  163  A    between atoms: _381  and  _384
REMARK  164  A    between atoms: _387  and  _389
REMARK  165  A    between atoms: _389  and  _390
REMARK  166  A    between atoms: _389  and  _392
REMARK  167  A    between atoms: _392  and  _393
REMARK  168  A    between atoms: _396  and  _398
REMARK  169  A    between atoms: _398  and  _399
REMARK  170  A    between atoms: _398  and  _401
REMARK  171  A    between atoms: _404  and  _406
REMARK  172  A    between atoms: _406  and  _407
REMARK  173  A    between atoms: _406  and  _409
REMARK  174  A    between atoms: _409  and  _410
REMARK  175  A    between atoms: _413  and  _415
REMARK  176  A    between atoms: _415  and  _416
REMARK  177  A    between atoms: _415  and  _418
REMARK  178  A    between atoms: _418  and  _419
REMARK  179  A    between atoms: _422  and  _424
REMARK  180  A    between atoms: _424  and  _425
REMARK  181  A    between atoms: _424  and  _427
REMARK  182  A    between atoms: _427  and  _428
REMARK  183  A    between atoms: _433  and  _435
REMARK  184  A    between atoms: _435  and  _436
REMARK  185  A    between atoms: _435  and  _438
REMARK  186  A    between atoms: _438  and  _439
REMARK  187  A    between atoms: _444  and  _445
REMARK  188  A    between atoms: _447  and  _449
REMARK  189  A    between atoms: _449  and  _450
REMARK  190  A    between atoms: _453  and  _455
REMARK  191  A    between atoms: _455  and  _456
REMARK  192  A    between atoms: _455  and  _458
REMARK  193  A    between atoms: _458  and  _459
REMARK  194  A    between atoms: _469  and  _471
REMARK  195  A    between atoms: _471  and  _472
REMARK  196  A    between atoms: _471  and  _474
REMARK  197  A    between atoms: _474  and  _475
REMARK  198  A    between atoms: _475  and  _476
REMARK  199  A    between atoms: _479  and  _481
REMARK  200  A    between atoms: _481  and  _482
REMARK  201  A    between atoms: _481  and  _484
REMARK  202  A    between atoms: _484  and  _485
REMARK  203  A    between atoms: _487  and  _489
REMARK  204  A    between atoms: _489  and  _490
REMARK  205  A    between atoms: _489  and  _492
REMARK  206  A    between atoms: _492  and  _493
REMARK  207  A    between atoms: _499  and  _501
REMARK  208  A    between atoms: _501  and  _502
REMARK  209  A    between atoms: _501  and  _504
REMARK  210  A    between atoms: _504  and  _505
REMARK  211  A    between atoms: _508  and  _510
REMARK  212  A    between atoms: _510  and  _511
REMARK  213  A    between atoms: _510  and  _513
REMARK  214  A    between atoms: _516  and  _518
REMARK  215  A    between atoms: _518  and  _519
REMARK  216  A    between atoms: _518  and  _521
REMARK  217  A    between atoms: _521  and  _522
REMARK  218  A    between atoms: _525  and  _527
REMARK  219  A    between atoms: _527  and  _528
REMARK  220  A    between atoms: _527  and  _530
REMARK  221  A    between atoms: _530  and  _531
REMARK  222  A    between atoms: _531  and  _532
REMARK  223  A    between atoms: _532  and  _533
REMARK  224  A    between atoms: _533  and  _534
REMARK  225  A    between atoms: _538  and  _540
REMARK  226  A    between atoms: _540  and  _541
REMARK  227  A    between atoms: _540  and  _543
REMARK  228  A    between atoms: _546  and  _548
REMARK  229  A    between atoms: _548  and  _549
REMARK  230  A    between atoms: _548  and  _551
REMARK  231  A    between atoms: _551  and  _552
REMARK                            x       y       z     vdW  Elec       q    Type
REMARK                         _______ _______ _______ _____ _____    ______ ____
ROOT
ATOM      1  O   HOH     1       0.306  12.897  21.286  0.00  0.00    +0.000 OA
ENDROOT
TORSDOF 0
REMARK  Name = ../refined-set-2016/4cwt/4cwt_pocket.pdb
REMARK  231 active torsions:
REMARK  status: ('A' for Active; 'I' for Inactive)
REMARK    1  A    between atoms: _1  and  _3
REMARK    2  A    between atoms: _3  and  _4
REMARK    3  A    between atoms: _3  and  _6
REMARK    4  A    between atoms: _6  and  _7
REMARK    5  A    between atoms: _13  and  _15
REMARK    6  A    between atoms: _15  and  _16
REMARK    7  A    between atoms: _19  and  _21
REMARK    8  A    between atoms: _21  and  _22
REMARK    9  A    between atoms: _21  and  _24
REMARK   10  A    between atoms: _24  and  _25
REMARK   11  A    between atoms: _31  and  _33
REMARK   12  A    between atoms: _33  and  _34
REMARK   13  A    between atoms: _33  and  _36
REMARK   14  A    between atoms: _36  and  _37
REMARK   15  A    between atoms: _37  and  _38
REMARK   16  A    between atoms: _43  and  _45
REMARK   17  A    between atoms: _45  and  _46
REMARK   18  A    between atoms: _45  and  _48
REMARK   19  A    between atoms: _48  and  _49
REMARK   20  A    between atoms: _52  and  _54
REMARK   21  A    between atoms: _54  and  _55
REMARK   22  A    between atoms: _54  and  _57
REMARK   23  A    between atoms: _57  and  _58
REMARK   24  A    between atoms: _61  and  _63
REMARK   25  A    between atoms: _63  and  _64
REMARK   26  A    between atoms: _63  and  _66
REMARK   27  A    between atoms: _66  and  _67
REMARK   28  A    between atoms: _67  and  _68
REMARK   29  A    between atoms: _70  and  _72
REMARK   30  A    between atoms: _72  and  _73
REMARK   31  A    between atoms: _72  and  _75
REMARK   32  A    between atoms: _75  and  _76
REMARK   33  A    between atoms: _76  and  _77
REMARK   34  A    between atoms: _80  and  _82
REMARK   35  A    between atoms: _82  and  _83
REMARK   36  A    between atoms: _82  and  _85
REMARK   37  A    between atoms: _85  and  _86
REMARK   38  A    between atoms: _89  and  _91
REMARK   39  A    between atoms: _91  and  _92
REMARK   40  A    between atoms: _91  and  _94
REMARK   41  A    between atoms: _94  and  _95
REMARK   42  A    between atoms: _97  and  _99
REMARK   43  A    between atoms: _99  and  _100
REMARK   44  A    between atoms: _99  and  _102
REMARK   45  A    between atoms: _102  and  _103
REMARK   46  A    between atoms: _108  and  _110
REMARK   47  A    between atoms: _110  and  _111
REMARK   48  A    between atoms: _110  and  _113
REMARK   49  A    between atoms: _113  and  _114
REMARK   50  A    between atoms: _116  and  _118
REMARK   51  A    between atoms: _118  and  _119
REMARK   52  A    between atoms: _118  and  _121
REMARK   53  A    between atoms: _121  and  _122
REMARK   54  A    between atoms: _125  and  _127
REMARK   55  A    between atoms: _127  and  _128
REMARK   56  A    between atoms: _131  and  _133
REMARK   57  A    between atoms: _133  and  _134
REMARK   58  A    between atoms: _133  and  _136
REMARK   59  A    between atoms: _136  and  _137
REMARK   60  A    between atoms: _137  and  _138
REMARK   61  A    between atoms: _138  and  _139
REMARK   62  A    between atoms: _139  and  _140
REMARK   63  A    between atoms: _144  and  _146
REMARK   64  A    between atoms: _146  and  _147
REMARK   65  A    between atoms: _146  and  _149
REMARK   66  A    between atoms: _149  and  _150
REMARK   67  A    between atoms: _153  and  _155
REMARK   68  A    between atoms: _155  and  _156
REMARK   69  A    between atoms: _158  and  _160
REMARK   70  A    between atoms: _160  and  _161
REMARK   71  A    between atoms: _160  and  _163
REMARK   72  A    between atoms: _163  and  _164
REMARK   73  A    between atoms: _164  and  _165
REMARK   74  A    between atoms: _167  and  _169
REMARK   75  A    between atoms: _169  and  _170
REMARK   76  A    between atoms: _169  and  _172
REMARK   77  A    between atoms: _172  and  _173
REMARK   78  A    between atoms: _176  and  _178
REMARK   79  A    between atoms: _178  and  _179
REMARK   80  A    between atoms: _178  and  _181
REMARK   81  A    between atoms: _181  and  _182
REMARK   82  A    between atoms: _182  and  _183
REMARK   83  A    between atoms: _183  and  _184
REMARK   84  A    between atoms: _184  and  _185
REMARK   85  A    between atoms: _189  and  _191
REMARK   86  A    between atoms: _191  and  _192
REMARK   87  A    between atoms: _195  and  _197
REMARK   88  A    between atoms: _197  and  _198
REMARK   89  A    between atoms: _197  and  _200
REMARK   90  A    between atoms: _200  and  _201
REMARK   91  A    between atoms: _204  and  _206
REMARK   92  A    between atoms: _206  and  _207
REMARK   93  A    between atoms: _206  and  _209
REMARK   94  A    between atoms: _209  and  _210
REMARK   95  A    between atoms: _213  and  _215
REMARK   96  A    between atoms: _215  and  _216
REMARK   97  A    between atoms: _215  and  _218
REMARK   98  A    between atoms: _218  and  _219
REMARK   99  A    between atoms: _222  and  _224
REMARK  100  A    between atoms: _224  and  _225
REMARK  101  A    between atoms: _224  and  _227
REMARK  102  A    between atoms: _227  and  _228
REMARK  103  A    between atoms: _233  and  _235
REMARK  104  A    between atoms: _235  and  _236
REMARK  105  A    between atoms: _235  and  _238
REMARK  106  A    between atoms: _238  and  _239
REMARK  107  A    between atoms: _244  and  _246
REMARK  108  A    between atoms: _246  and  _247
REMARK  109  A    between atoms: _246  and  _249
REMARK  110  A    between atoms: _249  and  _250
REMARK  111  A    between atoms: _253  and  _255
REMARK  112  A    between atoms: _255  and  _256
REMARK  113  A    between atoms: _258  and  _260
REMARK  114  A    between atoms: _260  and  _261
REMARK  115  A    between atoms: _260  and  _263
REMARK  116  A    between atoms: _263  and  _264
REMARK  117  A    between atoms: _267  and  _269
REMARK  118  A    between atoms: _269  and  _270
REMARK  119  A    between atoms: _269  and  _272
REMARK  120  A    between atoms: _272  and  _273
REMARK  121  A    between atoms: _276  and  _278
REMARK  122  A    between atoms: _278  and  _279
REMARK  123  A    between atoms: _282  and  _284
REMARK  124  A    between atoms: _284  and  _285
REMARK  125  A    between atoms: _284  and  _287
REMARK  126  A    between atoms: _287  and  _288
REMARK  127  A    between atoms: _288  and  _289
REMARK  128  A    between atoms: _289  and  _290
REMARK  129  A    between atoms: _290  and  _291
REMARK  130  A    between atoms: _295  and  _297
REMARK  131  A    between atoms: _297  and  _298
REMARK  132  A    between atoms: _300  and  _302
REMARK  133  A    between atoms: _302  and  _303
REMARK  134  A    between atoms: _302  and  _305
REMARK  135  A    between atoms: _305  and  _306
REMARK  136  A    between atoms: _309  and  _311
REMARK  137  A    between atoms: _311  and  _312
REMARK  138  A    between atoms: _311  and  _314
REMARK  139  A    between atoms: _314  and  _315
REMARK  140  A    between atoms: _321  and  _323
REMARK  141  A    between atoms: _323  and  _324
REMARK  142  A    between atoms: _326  and  _328
REMARK  143  A    between atoms: _328  and  _329
REMARK  144  A    between atoms: _328  and  _331
REMARK  145  A    between atoms: _334  and  _336
REMARK  146  A    between atoms: _336  and  _337
REMARK  147  A    between atoms: _339  and  _341
REMARK  148  A    between atoms: _341  and  _342
REMARK  149  A    between atoms: _341  and  _344
REMARK  150  A    between atoms: _344  and  _345
REMARK  151  A    between atoms: _351  and  _353
REMARK  152  A    between atoms: _353  and  _354
REMARK  153  A    between atoms: _353  and  _356
REMARK  154  A    between atoms: _356  and  _357
REMARK  155  A    between atoms: _362  and  _363
REMARK  156  A    between atoms: _365  and  _367
REMARK  157  A    between atoms: _367  and  _368
REMARK  158  A    between atoms: _367  and  _370
REMARK  159  A    between atoms: _370  and  _371
REMARK  160  A    between atoms: _376  and  _377
REMARK  161  A    between atoms: _379  and  _381
REMARK  162  A    between atoms: _381  and  _382
REMARK  163  A    between atoms: _381  and  _384
REMARK  164  A    between atoms: _387  and  _389
REMARK  165  A    between atoms: _389  and  _390
REMARK  166  A    between atoms: _389  and  _392
REMARK  167  A    between atoms: _392  and  _393
REMARK  168  A    between atoms: _396  and  _398
REMARK  169  A    between atoms: _398  and  _399
REMARK  170  A    between atoms: _398  and  _401
REMARK  171  A    between atoms: _404  and  _406
REMARK  172  A    between atoms: _406  and  _407
REMARK  173  A    between atoms: _406  and  _409
REMARK  174  A    between atoms: _409  and  _410
REMARK  175  A    between atoms: _413  and  _415
REMARK  176  A    between atoms: _415  and  _416
REMARK  177  A    between atoms: _415  and  _418
REMARK  178  A    between atoms: _418  and  _419
REMARK  179  A    between atoms: _422  and  _424
REMARK  180  A    between atoms: _424  and  _425
REMARK  181  A    between atoms: _424  and  _427
REMARK  182  A    between atoms: _427  and  _428
REMARK  183  A    between atoms: _433  and  _435
REMARK  184  A    between atoms: _435  and  _436
REMARK  185  A    between atoms: _435  and  _438
REMARK  186  A    between atoms: _438  and  _439
REMARK  187  A    between atoms: _444  and  _445
REMARK  188  A    between atoms: _447  and  _449
REMARK  189  A    between atoms: _449  and  _450
REMARK  190  A    between atoms: _453  and  _455
REMARK  191  A    between atoms: _455  and  _456
REMARK  192  A    between atoms: _455  and  _458
REMARK  193  A    between atoms: _458  and  _459
REMARK  194  A    between atoms: _469  and  _471
REMARK  195  A    between atoms: _471  and  _472
REMARK  196  A    between atoms: _471  and  _474
REMARK  197  A    between atoms: _474  and  _475
REMARK  198  A    between atoms: _475  and  _476
REMARK  199  A    between atoms: _479  and  _481
REMARK  200  A    between atoms: _481  and  _482
REMARK  201  A    between atoms: _481  and  _484
REMARK  202  A    between atoms: _484  and  _485
REMARK  203  A    between atoms: _487  and  _489
REMARK  204  A    between atoms: _489  and  _490
REMARK  205  A    between atoms: _489  and  _492
REMARK  206  A    between atoms: _492  and  _493
REMARK  207  A    between atoms: _499  and  _501
REMARK  208  A    between atoms: _501  and  _502
REMARK  209  A    between atoms: _501  and  _504
REMARK  210  A    between atoms: _504  and  _505
REMARK  211  A    between atoms: _508  and  _510
REMARK  212  A    between atoms: _510  and  _511
REMARK  213  A    between atoms: _510  and  _513
REMARK  214  A    between atoms: _516  and  _518
REMARK  215  A    between atoms: _518  and  _519
REMARK  216  A    between atoms: _518  and  _521
REMARK  217  A    between atoms: _521  and  _522
REMARK  218  A    between atoms: _525  and  _527
REMARK  219  A    between atoms: _527  and  _528
REMARK  220  A    between atoms: _527  and  _530
REMARK  221  A    between atoms: _530  and  _531
REMARK  222  A    between atoms: _531  and  _532
REMARK  223  A    between atoms: _532  and  _533
REMARK  224  A    between atoms: _533  and  _534
REMARK  225  A    between atoms: _538  and  _540
REMARK  226  A    between atoms: _540  and  _541
REMARK  227  A    between atoms: _540  and  _543
REMARK  228  A    between atoms: _546  and  _548
REMARK  229  A    between atoms: _548  and  _549
REMARK  230  A    between atoms: _548  and  _551
REMARK  231  A    between atoms: _551  and  _552
REMARK                            x       y       z     vdW  Elec       q    Type
REMARK                         _______ _______ _______ _____ _____    ______ ____
ROOT
ATOM      1  O   HOH     1       4.903   9.501  20.256  0.00  0.00    +0.000 OA
ENDROOT
TORSDOF 0
REMARK  Name = ../refined-set-2016/4cwt/4cwt_pocket.pdb
REMARK  231 active torsions:
REMARK  status: ('A' for Active; 'I' for Inactive)
REMARK    1  A    between atoms: _1  and  _3
REMARK    2  A    between atoms: _3  and  _4
REMARK    3  A    between atoms: _3  and  _6
REMARK    4  A    between atoms: _6  and  _7
REMARK    5  A    between atoms: _13  and  _15
REMARK    6  A    between atoms: _15  and  _16
REMARK    7  A    between atoms: _19  and  _21
REMARK    8  A    between atoms: _21  and  _22
REMARK    9  A    between atoms: _21  and  _24
REMARK   10  A    between atoms: _24  and  _25
REMARK   11  A    between atoms: _31  and  _33
REMARK   12  A    between atoms: _33  and  _34
REMARK   13  A    between atoms: _33  and  _36
REMARK   14  A    between atoms: _36  and  _37
REMARK   15  A    between atoms: _37  and  _38
REMARK   16  A    between atoms: _43  and  _45
REMARK   17  A    between atoms: _45  and  _46
REMARK   18  A    between atoms: _45  and  _48
REMARK   19  A    between atoms: _48  and  _49
REMARK   20  A    between atoms: _52  and  _54
REMARK   21  A    between atoms: _54  and  _55
REMARK   22  A    between atoms: _54  and  _57
REMARK   23  A    between atoms: _57  and  _58
REMARK   24  A    between atoms: _61  and  _63
REMARK   25  A    between atoms: _63  and  _64
REMARK   26  A    between atoms: _63  and  _66
REMARK   27  A    between atoms: _66  and  _67
REMARK   28  A    between atoms: _67  and  _68
REMARK   29  A    between atoms: _70  and  _72
REMARK   30  A    between atoms: _72  and  _73
REMARK   31  A    between atoms: _72  and  _75
REMARK   32  A    between atoms: _75  and  _76
REMARK   33  A    between atoms: _76  and  _77
REMARK   34  A    between atoms: _80  and  _82
REMARK   35  A    between atoms: _82  and  _83
REMARK   36  A    between atoms: _82  and  _85
REMARK   37  A    between atoms: _85  and  _86
REMARK   38  A    between atoms: _89  and  _91
REMARK   39  A    between atoms: _91  and  _92
REMARK   40  A    between atoms: _91  and  _94
REMARK   41  A    between atoms: _94  and  _95
REMARK   42  A    between atoms: _97  and  _99
REMARK   43  A    between atoms: _99  and  _100
REMARK   44  A    between atoms: _99  and  _102
REMARK   45  A    between atoms: _102  and  _103
REMARK   46  A    between atoms: _108  and  _110
REMARK   47  A    between atoms: _110  and  _111
REMARK   48  A    between atoms: _110  and  _113
REMARK   49  A    between atoms: _113  and  _114
REMARK   50  A    between atoms: _116  and  _118
REMARK   51  A    between atoms: _118  and  _119
REMARK   52  A    between atoms: _118  and  _121
REMARK   53  A    between atoms: _121  and  _122
REMARK   54  A    between atoms: _125  and  _127
REMARK   55  A    between atoms: _127  and  _128
REMARK   56  A    between atoms: _131  and  _133
REMARK   57  A    between atoms: _133  and  _134
REMARK   58  A    between atoms: _133  and  _136
REMARK   59  A    between atoms: _136  and  _137
REMARK   60  A    between atoms: _137  and  _138
REMARK   61  A    between atoms: _138  and  _139
REMARK   62  A    between atoms: _139  and  _140
REMARK   63  A    between atoms: _144  and  _146
REMARK   64  A    between atoms: _146  and  _147
REMARK   65  A    between atoms: _146  and  _149
REMARK   66  A    between atoms: _149  and  _150
REMARK   67  A    between atoms: _153  and  _155
REMARK   68  A    between atoms: _155  and  _156
REMARK   69  A    between atoms: _158  and  _160
REMARK   70  A    between atoms: _160  and  _161
REMARK   71  A    between atoms: _160  and  _163
REMARK   72  A    between atoms: _163  and  _164
REMARK   73  A    between atoms: _164  and  _165
REMARK   74  A    between atoms: _167  and  _169
REMARK   75  A    between atoms: _169  and  _170
REMARK   76  A    between atoms: _169  and  _172
REMARK   77  A    between atoms: _172  and  _173
REMARK   78  A    between atoms: _176  and  _178
REMARK   79  A    between atoms: _178  and  _179
REMARK   80  A    between atoms: _178  and  _181
REMARK   81  A    between atoms: _181  and  _182
REMARK   82  A    between atoms: _182  and  _183
REMARK   83  A    between atoms: _183  and  _184
REMARK   84  A    between atoms: _184  and  _185
REMARK   85  A    between atoms: _189  and  _191
REMARK   86  A    between atoms: _191  and  _192
REMARK   87  A    between atoms: _195  and  _197
REMARK   88  A    between atoms: _197  and  _198
REMARK   89  A    between atoms: _197  and  _200
REMARK   90  A    between atoms: _200  and  _201
REMARK   91  A    between atoms: _204  and  _206
REMARK   92  A    between atoms: _206  and  _207
REMARK   93  A    between atoms: _206  and  _209
REMARK   94  A    between atoms: _209  and  _210
REMARK   95  A    between atoms: _213  and  _215
REMARK   96  A    between atoms: _215  and  _216
REMARK   97  A    between atoms: _215  and  _218
REMARK   98  A    between atoms: _218  and  _219
REMARK   99  A    between atoms: _222  and  _224
REMARK  100  A    between atoms: _224  and  _225
REMARK  101  A    between atoms: _224  and  _227
REMARK  102  A    between atoms: _227  and  _228
REMARK  103  A    between atoms: _233  and  _235
REMARK  104  A    between atoms: _235  and  _236
REMARK  105  A    between atoms: _235  and  _238
REMARK  106  A    between atoms: _238  and  _239
REMARK  107  A    between atoms: _244  and  _246
REMARK  108  A    between atoms: _246  and  _247
REMARK  109  A    between atoms: _246  and  _249
REMARK  110  A    between atoms: _249  and  _250
REMARK  111  A    between atoms: _253  and  _255
REMARK  112  A    between atoms: _255  and  _256
REMARK  113  A    between atoms: _258  and  _260
REMARK  114  A    between atoms: _260  and  _261
REMARK  115  A    between atoms: _260  and  _263
REMARK  116  A    between atoms: _263  and  _264
REMARK  117  A    between atoms: _267  and  _269
REMARK  118  A    between atoms: _269  and  _270
REMARK  119  A    between atoms: _269  and  _272
REMARK  120  A    between atoms: _272  and  _273
REMARK  121  A    between atoms: _276  and  _278
REMARK  122  A    between atoms: _278  and  _279
REMARK  123  A    between atoms: _282  and  _284
REMARK  124  A    between atoms: _284  and  _285
REMARK  125  A    between atoms: _284  and  _287
REMARK  126  A    between atoms: _287  and  _288
REMARK  127  A    between atoms: _288  and  _289
REMARK  128  A    between atoms: _289  and  _290
REMARK  129  A    between atoms: _290  and  _291
REMARK  130  A    between atoms: _295  and  _297
REMARK  131  A    between atoms: _297  and  _298
REMARK  132  A    between atoms: _300  and  _302
REMARK  133  A    between atoms: _302  and  _303
REMARK  134  A    between atoms: _302  and  _305
REMARK  135  A    between atoms: _305  and  _306
REMARK  136  A    between atoms: _309  and  _311
REMARK  137  A    between atoms: _311  and  _312
REMARK  138  A    between atoms: _311  and  _314
REMARK  139  A    between atoms: _314  and  _315
REMARK  140  A    between atoms: _321  and  _323
REMARK  141  A    between atoms: _323  and  _324
REMARK  142  A    between atoms: _326  and  _328
REMARK  143  A    between atoms: _328  and  _329
REMARK  144  A    between atoms: _328  and  _331
REMARK  145  A    between atoms: _334  and  _336
REMARK  146  A    between atoms: _336  and  _337
REMARK  147  A    between atoms: _339  and  _341
REMARK  148  A    between atoms: _341  and  _342
REMARK  149  A    between atoms: _341  and  _344
REMARK  150  A    between atoms: _344  and  _345
REMARK  151  A    between atoms: _351  and  _353
REMARK  152  A    between atoms: _353  and  _354
REMARK  153  A    between atoms: _353  and  _356
REMARK  154  A    between atoms: _356  and  _357
REMARK  155  A    between atoms: _362  and  _363
REMARK  156  A    between atoms: _365  and  _367
REMARK  157  A    between atoms: _367  and  _368
REMARK  158  A    between atoms: _367  and  _370
REMARK  159  A    between atoms: _370  and  _371
REMARK  160  A    between atoms: _376  and  _377
REMARK  161  A    between atoms: _379  and  _381
REMARK  162  A    between atoms: _381  and  _382
REMARK  163  A    between atoms: _381  and  _384
REMARK  164  A    between atoms: _387  and  _389
REMARK  165  A    between atoms: _389  and  _390
REMARK  166  A    between atoms: _389  and  _392
REMARK  167  A    between atoms: _392  and  _393
REMARK  168  A    between atoms: _396  and  _398
REMARK  169  A    between atoms: _398  and  _399
REMARK  170  A    between atoms: _398  and  _401
REMARK  171  A    between atoms: _404  and  _406
REMARK  172  A    between atoms: _406  and  _407
REMARK  173  A    between atoms: _406  and  _409
REMARK  174  A    between atoms: _409  and  _410
REMARK  175  A    between atoms: _413  and  _415
REMARK  176  A    between atoms: _415  and  _416
REMARK  177  A    between atoms: _415  and  _418
REMARK  178  A    between atoms: _418  and  _419
REMARK  179  A    between atoms: _422  and  _424
REMARK  180  A    between atoms: _424  and  _425
REMARK  181  A    between atoms: _424  and  _427
REMARK  182  A    between atoms: _427  and  _428
REMARK  183  A    between atoms: _433  and  _435
REMARK  184  A    between atoms: _435  and  _436
REMARK  185  A    between atoms: _435  and  _438
REMARK  186  A    between atoms: _438  and  _439
REMARK  187  A    between atoms: _444  and  _445
REMARK  188  A    between atoms: _447  and  _449
REMARK  189  A    between atoms: _449  and  _450
REMARK  190  A    between atoms: _453  and  _455
REMARK  191  A    between atoms: _455  and  _456
REMARK  192  A    between atoms: _455  and  _458
REMARK  193  A    between atoms: _458  and  _459
REMARK  194  A    between atoms: _469  and  _471
REMARK  195  A    between atoms: _471  and  _472
REMARK  196  A    between atoms: _471  and  _474
REMARK  197  A    between atoms: _474  and  _475
REMARK  198  A    between atoms: _475  and  _476
REMARK  199  A    between atoms: _479  and  _481
REMARK  200  A    between atoms: _481  and  _482
REMARK  201  A    between atoms: _481  and  _484
REMARK  202  A    between atoms: _484  and  _485
REMARK  203  A    between atoms: _487  and  _489
REMARK  204  A    between atoms: _489  and  _490
REMARK  205  A    between atoms: _489  and  _492
REMARK  206  A    between atoms: _492  and  _493
REMARK  207  A    between atoms: _499  and  _501
REMARK  208  A    between atoms: _501  and  _502
REMARK  209  A    between atoms: _501  and  _504
REMARK  210  A    between atoms: _504  and  _505
REMARK  211  A    between atoms: _508  and  _510
REMARK  212  A    between atoms: _510  and  _511
REMARK  213  A    between atoms: _510  and  _513
REMARK  214  A    between atoms: _516  and  _518
REMARK  215  A    between atoms: _518  and  _519
REMARK  216  A    between atoms: _518  and  _521
REMARK  217  A    between atoms: _521  and  _522
REMARK  218  A    between atoms: _525  and  _527
REMARK  219  A    between atoms: _527  and  _528
REMARK  220  A    between atoms: _527  and  _530
REMARK  221  A    between atoms: _530  and  _531
REMARK  222  A    between atoms: _531  and  _532
REMARK  223  A    between atoms: _532  and  _533
REMARK  224  A    between atoms: _533  and  _534
REMARK  225  A    between atoms: _538  and  _540
REMARK  226  A    between atoms: _540  and  _541
REMARK  227  A    between atoms: _540  and  _543
REMARK  228  A    between atoms: _546  and  _548
REMARK  229  A    between atoms: _548  and  _549
REMARK  230  A    between atoms: _548  and  _551
REMARK  231  A    between atoms: _551  and  _552
REMARK                            x       y       z     vdW  Elec       q    Type
REMARK                         _______ _______ _______ _____ _____    ______ ____
ROOT
ATOM      1  O   HOH     1       1.551   2.417  20.597  0.00  0.00    +0.000 OA
ENDROOT
TORSDOF 0
REMARK  Name = ../refined-set-2016/4cwt/4cwt_pocket.pdb
REMARK  231 active torsions:
REMARK  status: ('A' for Active; 'I' for Inactive)
REMARK    1  A    between atoms: _1  and  _3
REMARK    2  A    between atoms: _3  and  _4
REMARK    3  A    between atoms: _3  and  _6
REMARK    4  A    between atoms: _6  and  _7
REMARK    5  A    between atoms: _13  and  _15
REMARK    6  A    between atoms: _15  and  _16
REMARK    7  A    between atoms: _19  and  _21
REMARK    8  A    between atoms: _21  and  _22
REMARK    9  A    between atoms: _21  and  _24
REMARK   10  A    between atoms: _24  and  _25
REMARK   11  A    between atoms: _31  and  _33
REMARK   12  A    between atoms: _33  and  _34
REMARK   13  A    between atoms: _33  and  _36
REMARK   14  A    between atoms: _36  and  _37
REMARK   15  A    between atoms: _37  and  _38
REMARK   16  A    between atoms: _43  and  _45
REMARK   17  A    between atoms: _45  and  _46
REMARK   18  A    between atoms: _45  and  _48
REMARK   19  A    between atoms: _48  and  _49
REMARK   20  A    between atoms: _52  and  _54
REMARK   21  A    between atoms: _54  and  _55
REMARK   22  A    between atoms: _54  and  _57
REMARK   23  A    between atoms: _57  and  _58
REMARK   24  A    between atoms: _61  and  _63
REMARK   25  A    between atoms: _63  and  _64
REMARK   26  A    between atoms: _63  and  _66
REMARK   27  A    between atoms: _66  and  _67
REMARK   28  A    between atoms: _67  and  _68
REMARK   29  A    between atoms: _70  and  _72
REMARK   30  A    between atoms: _72  and  _73
REMARK   31  A    between atoms: _72  and  _75
REMARK   32  A    between atoms: _75  and  _76
REMARK   33  A    between atoms: _76  and  _77
REMARK   34  A    between atoms: _80  and  _82
REMARK   35  A    between atoms: _82  and  _83
REMARK   36  A    between atoms: _82  and  _85
REMARK   37  A    between atoms: _85  and  _86
REMARK   38  A    between atoms: _89  and  _91
REMARK   39  A    between atoms: _91  and  _92
REMARK   40  A    between atoms: _91  and  _94
REMARK   41  A    between atoms: _94  and  _95
REMARK   42  A    between atoms: _97  and  _99
REMARK   43  A    between atoms: _99  and  _100
REMARK   44  A    between atoms: _99  and  _102
REMARK   45  A    between atoms: _102  and  _103
REMARK   46  A    between atoms: _108  and  _110
REMARK   47  A    between atoms: _110  and  _111
REMARK   48  A    between atoms: _110  and  _113
REMARK   49  A    between atoms: _113  and  _114
REMARK   50  A    between atoms: _116  and  _118
REMARK   51  A    between atoms: _118  and  _119
REMARK   52  A    between atoms: _118  and  _121
REMARK   53  A    between atoms: _121  and  _122
REMARK   54  A    between atoms: _125  and  _127
REMARK   55  A    between atoms: _127  and  _128
REMARK   56  A    between atoms: _131  and  _133
REMARK   57  A    between atoms: _133  and  _134
REMARK   58  A    between atoms: _133  and  _136
REMARK   59  A    between atoms: _136  and  _137
REMARK   60  A    between atoms: _137  and  _138
REMARK   61  A    between atoms: _138  and  _139
REMARK   62  A    between atoms: _139  and  _140
REMARK   63  A    between atoms: _144  and  _146
REMARK   64  A    between atoms: _146  and  _147
REMARK   65  A    between atoms: _146  and  _149
REMARK   66  A    between atoms: _149  and  _150
REMARK   67  A    between atoms: _153  and  _155
REMARK   68  A    between atoms: _155  and  _156
REMARK   69  A    between atoms: _158  and  _160
REMARK   70  A    between atoms: _160  and  _161
REMARK   71  A    between atoms: _160  and  _163
REMARK   72  A    between atoms: _163  and  _164
REMARK   73  A    between atoms: _164  and  _165
REMARK   74  A    between atoms: _167  and  _169
REMARK   75  A    between atoms: _169  and  _170
REMARK   76  A    between atoms: _169  and  _172
REMARK   77  A    between atoms: _172  and  _173
REMARK   78  A    between atoms: _176  and  _178
REMARK   79  A    between atoms: _178  and  _179
REMARK   80  A    between atoms: _178  and  _181
REMARK   81  A    between atoms: _181  and  _182
REMARK   82  A    between atoms: _182  and  _183
REMARK   83  A    between atoms: _183  and  _184
REMARK   84  A    between atoms: _184  and  _185
REMARK   85  A    between atoms: _189  and  _191
REMARK   86  A    between atoms: _191  and  _192
REMARK   87  A    between atoms: _195  and  _197
REMARK   88  A    between atoms: _197  and  _198
REMARK   89  A    between atoms: _197  and  _200
REMARK   90  A    between atoms: _200  and  _201
REMARK   91  A    between atoms: _204  and  _206
REMARK   92  A    between atoms: _206  and  _207
REMARK   93  A    between atoms: _206  and  _209
REMARK   94  A    between atoms: _209  and  _210
REMARK   95  A    between atoms: _213  and  _215
REMARK   96  A    between atoms: _215  and  _216
REMARK   97  A    between atoms: _215  and  _218
REMARK   98  A    between atoms: _218  and  _219
REMARK   99  A    between atoms: _222  and  _224
REMARK  100  A    between atoms: _224  and  _225
REMARK  101  A    between atoms: _224  and  _227
REMARK  102  A    between atoms: _227  and  _228
REMARK  103  A    between atoms: _233  and  _235
REMARK  104  A    between atoms: _235  and  _236
REMARK  105  A    between atoms: _235  and  _238
REMARK  106  A    between atoms: _238  and  _239
REMARK  107  A    between atoms: _244  and  _246
REMARK  108  A    between atoms: _246  and  _247
REMARK  109  A    between atoms: _246  and  _249
REMARK  110  A    between atoms: _249  and  _250
REMARK  111  A    between atoms: _253  and  _255
REMARK  112  A    between atoms: _255  and  _256
REMARK  113  A    between atoms: _258  and  _260
REMARK  114  A    between atoms: _260  and  _261
REMARK  115  A    between atoms: _260  and  _263
REMARK  116  A    between atoms: _263  and  _264
REMARK  117  A    between atoms: _267  and  _269
REMARK  118  A    between atoms: _269  and  _270
REMARK  119  A    between atoms: _269  and  _272
REMARK  120  A    between atoms: _272  and  _273
REMARK  121  A    between atoms: _276  and  _278
REMARK  122  A    between atoms: _278  and  _279
REMARK  123  A    between atoms: _282  and  _284
REMARK  124  A    between atoms: _284  and  _285
REMARK  125  A    between atoms: _284  and  _287
REMARK  126  A    between atoms: _287  and  _288
REMARK  127  A    between atoms: _288  and  _289
REMARK  128  A    between atoms: _289  and  _290
REMARK  129  A    between atoms: _290  and  _291
REMARK  130  A    between atoms: _295  and  _297
REMARK  131  A    between atoms: _297  and  _298
REMARK  132  A    between atoms: _300  and  _302
REMARK  133  A    between atoms: _302  and  _303
REMARK  134  A    between atoms: _302  and  _305
REMARK  135  A    between atoms: _305  and  _306
REMARK  136  A    between atoms: _309  and  _311
REMARK  137  A    between atoms: _311  and  _312
REMARK  138  A    between atoms: _311  and  _314
REMARK  139  A    between atoms: _314  and  _315
REMARK  140  A    between atoms: _321  and  _323
REMARK  141  A    between atoms: _323  and  _324
REMARK  142  A    between atoms: _326  and  _328
REMARK  143  A    between atoms: _328  and  _329
REMARK  144  A    between atoms: _328  and  _331
REMARK  145  A    between atoms: _334  and  _336
REMARK  146  A    between atoms: _336  and  _337
REMARK  147  A    between atoms: _339  and  _341
REMARK  148  A    between atoms: _341  and  _342
REMARK  149  A    between atoms: _341  and  _344
REMARK  150  A    between atoms: _344  and  _345
REMARK  151  A    between atoms: _351  and  _353
REMARK  152  A    between atoms: _353  and  _354
REMARK  153  A    between atoms: _353  and  _356
REMARK  154  A    between atoms: _356  and  _357
REMARK  155  A    between atoms: _362  and  _363
REMARK  156  A    between atoms: _365  and  _367
REMARK  157  A    between atoms: _367  and  _368
REMARK  158  A    between atoms: _367  and  _370
REMARK  159  A    between atoms: _370  and  _371
REMARK  160  A    between atoms: _376  and  _377
REMARK  161  A    between atoms: _379  and  _381
REMARK  162  A    between atoms: _381  and  _382
REMARK  163  A    between atoms: _381  and  _384
REMARK  164  A    between atoms: _387  and  _389
REMARK  165  A    between atoms: _389  and  _390
REMARK  166  A    between atoms: _389  and  _392
REMARK  167  A    between atoms: _392  and  _393
REMARK  168  A    between atoms: _396  and  _398
REMARK  169  A    between atoms: _398  and  _399
REMARK  170  A    between atoms: _398  and  _401
REMARK  171  A    between atoms: _404  and  _406
REMARK  172  A    between atoms: _406  and  _407
REMARK  173  A    between atoms: _406  and  _409
REMARK  174  A    between atoms: _409  and  _410
REMARK  175  A    between atoms: _413  and  _415
REMARK  176  A    between atoms: _415  and  _416
REMARK  177  A    between atoms: _415  and  _418
REMARK  178  A    between atoms: _418  and  _419
REMARK  179  A    between atoms: _422  and  _424
REMARK  180  A    between atoms: _424  and  _425
REMARK  181  A    between atoms: _424  and  _427
REMARK  182  A    between atoms: _427  and  _428
REMARK  183  A    between atoms: _433  and  _435
REMARK  184  A    between atoms: _435  and  _436
REMARK  185  A    between atoms: _435  and  _438
REMARK  186  A    between atoms: _438  and  _439
REMARK  187  A    between atoms: _444  and  _445
REMARK  188  A    between atoms: _447  and  _449
REMARK  189  A    between atoms: _449  and  _450
REMARK  190  A    between atoms: _453  and  _455
REMARK  191  A    between atoms: _455  and  _456
REMARK  192  A    between atoms: _455  and  _458
REMARK  193  A    between atoms: _458  and  _459
REMARK  194  A    between atoms: _469  and  _471
REMARK  195  A    between atoms: _471  and  _472
REMARK  196  A    between atoms: _471  and  _474
REMARK  197  A    between atoms: _474  and  _475
REMARK  198  A    between atoms: _475  and  _476
REMARK  199  A    between atoms: _479  and  _481
REMARK  200  A    between atoms: _481  and  _482
REMARK  201  A    between atoms: _481  and  _484
REMARK  202  A    between atoms: _484  and  _485
REMARK  203  A    between atoms: _487  and  _489
REMARK  204  A    between atoms: _489  and  _490
REMARK  205  A    between atoms: _489  and  _492
REMARK  206  A    between atoms: _492  and  _493
REMARK  207  A    between atoms: _499  and  _501
REMARK  208  A    between atoms: _501  and  _502
REMARK  209  A    between atoms: _501  and  _504
REMARK  210  A    between atoms: _504  and  _505
REMARK  211  A    between atoms: _508  and  _510
REMARK  212  A    between atoms: _510  and  _511
REMARK  213  A    between atoms: _510  and  _513
REMARK  214  A    between atoms: _516  and  _518
REMARK  215  A    between atoms: _518  and  _519
REMARK  216  A    between atoms: _518  and  _521
REMARK  217  A    between atoms: _521  and  _522
REMARK  218  A    between atoms: _525  and  _527
REMARK  219  A    between atoms: _527  and  _528
REMARK  220  A    between atoms: _527  and  _530
REMARK  221  A    between atoms: _530  and  _531
REMARK  222  A    between atoms: _531  and  _532
REMARK  223  A    between atoms: _532  and  _533
REMARK  224  A    between atoms: _533  and  _534
REMARK  225  A    between atoms: _538  and  _540
REMARK  226  A    between atoms: _540  and  _541
REMARK  227  A    between atoms: _540  and  _543
REMARK  228  A    between atoms: _546  and  _548
REMARK  229  A    between atoms: _548  and  _549
REMARK  230  A    between atoms: _548  and  _551
REMARK  231  A    between atoms: _551  and  _552
REMARK                            x       y       z     vdW  Elec       q    Type
REMARK                         _______ _______ _______ _____ _____    ______ ____
ROOT
ATOM      1  O   HOH     1       1.901   4.274  23.966  0.00  0.00    +0.000 OA
ENDROOT
TORSDOF 0
REMARK  Name = ../refined-set-2016/4cwt/4cwt_pocket.pdb
REMARK  231 active torsions:
REMARK  status: ('A' for Active; 'I' for Inactive)
REMARK    1  A    between atoms: _1  and  _3
REMARK    2  A    between atoms: _3  and  _4
REMARK    3  A    between atoms: _3  and  _6
REMARK    4  A    between atoms: _6  and  _7
REMARK    5  A    between atoms: _13  and  _15
REMARK    6  A    between atoms: _15  and  _16
REMARK    7  A    between atoms: _19  and  _21
REMARK    8  A    between atoms: _21  and  _22
REMARK    9  A    between atoms: _21  and  _24
REMARK   10  A    between atoms: _24  and  _25
REMARK   11  A    between atoms: _31  and  _33
REMARK   12  A    between atoms: _33  and  _34
REMARK   13  A    between atoms: _33  and  _36
REMARK   14  A    between atoms: _36  and  _37
REMARK   15  A    between atoms: _37  and  _38
REMARK   16  A    between atoms: _43  and  _45
REMARK   17  A    between atoms: _45  and  _46
REMARK   18  A    between atoms: _45  and  _48
REMARK   19  A    between atoms: _48  and  _49
REMARK   20  A    between atoms: _52  and  _54
REMARK   21  A    between atoms: _54  and  _55
REMARK   22  A    between atoms: _54  and  _57
REMARK   23  A    between atoms: _57  and  _58
REMARK   24  A    between atoms: _61  and  _63
REMARK   25  A    between atoms: _63  and  _64
REMARK   26  A    between atoms: _63  and  _66
REMARK   27  A    between atoms: _66  and  _67
REMARK   28  A    between atoms: _67  and  _68
REMARK   29  A    between atoms: _70  and  _72
REMARK   30  A    between atoms: _72  and  _73
REMARK   31  A    between atoms: _72  and  _75
REMARK   32  A    between atoms: _75  and  _76
REMARK   33  A    between atoms: _76  and  _77
REMARK   34  A    between atoms: _80  and  _82
REMARK   35  A    between atoms: _82  and  _83
REMARK   36  A    between atoms: _82  and  _85
REMARK   37  A    between atoms: _85  and  _86
REMARK   38  A    between atoms: _89  and  _91
REMARK   39  A    between atoms: _91  and  _92
REMARK   40  A    between atoms: _91  and  _94
REMARK   41  A    between atoms: _94  and  _95
REMARK   42  A    between atoms: _97  and  _99
REMARK   43  A    between atoms: _99  and  _100
REMARK   44  A    between atoms: _99  and  _102
REMARK   45  A    between atoms: _102  and  _103
REMARK   46  A    between atoms: _108  and  _110
REMARK   47  A    between atoms: _110  and  _111
REMARK   48  A    between atoms: _110  and  _113
REMARK   49  A    between atoms: _113  and  _114
REMARK   50  A    between atoms: _116  and  _118
REMARK   51  A    between atoms: _118  and  _119
REMARK   52  A    between atoms: _118  and  _121
REMARK   53  A    between atoms: _121  and  _122
REMARK   54  A    between atoms: _125  and  _127
REMARK   55  A    between atoms: _127  and  _128
REMARK   56  A    between atoms: _131  and  _133
REMARK   57  A    between atoms: _133  and  _134
REMARK   58  A    between atoms: _133  and  _136
REMARK   59  A    between atoms: _136  and  _137
REMARK   60  A    between atoms: _137  and  _138
REMARK   61  A    between atoms: _138  and  _139
REMARK   62  A    between atoms: _139  and  _140
REMARK   63  A    between atoms: _144  and  _146
REMARK   64  A    between atoms: _146  and  _147
REMARK   65  A    between atoms: _146  and  _149
REMARK   66  A    between atoms: _149  and  _150
REMARK   67  A    between atoms: _153  and  _155
REMARK   68  A    between atoms: _155  and  _156
REMARK   69  A    between atoms: _158  and  _160
REMARK   70  A    between atoms: _160  and  _161
REMARK   71  A    between atoms: _160  and  _163
REMARK   72  A    between atoms: _163  and  _164
REMARK   73  A    between atoms: _164  and  _165
REMARK   74  A    between atoms: _167  and  _169
REMARK   75  A    between atoms: _169  and  _170
REMARK   76  A    between atoms: _169  and  _172
REMARK   77  A    between atoms: _172  and  _173
REMARK   78  A    between atoms: _176  and  _178
REMARK   79  A    between atoms: _178  and  _179
REMARK   80  A    between atoms: _178  and  _181
REMARK   81  A    between atoms: _181  and  _182
REMARK   82  A    between atoms: _182  and  _183
REMARK   83  A    between atoms: _183  and  _184
REMARK   84  A    between atoms: _184  and  _185
REMARK   85  A    between atoms: _189  and  _191
REMARK   86  A    between atoms: _191  and  _192
REMARK   87  A    between atoms: _195  and  _197
REMARK   88  A    between atoms: _197  and  _198
REMARK   89  A    between atoms: _197  and  _200
REMARK   90  A    between atoms: _200  and  _201
REMARK   91  A    between atoms: _204  and  _206
REMARK   92  A    between atoms: _206  and  _207
REMARK   93  A    between atoms: _206  and  _209
REMARK   94  A    between atoms: _209  and  _210
REMARK   95  A    between atoms: _213  and  _215
REMARK   96  A    between atoms: _215  and  _216
REMARK   97  A    between atoms: _215  and  _218
REMARK   98  A    between atoms: _218  and  _219
REMARK   99  A    between atoms: _222  and  _224
REMARK  100  A    between atoms: _224  and  _225
REMARK  101  A    between atoms: _224  and  _227
REMARK  102  A    between atoms: _227  and  _228
REMARK  103  A    between atoms: _233  and  _235
REMARK  104  A    between atoms: _235  and  _236
REMARK  105  A    between atoms: _235  and  _238
REMARK  106  A    between atoms: _238  and  _239
REMARK  107  A    between atoms: _244  and  _246
REMARK  108  A    between atoms: _246  and  _247
REMARK  109  A    between atoms: _246  and  _249
REMARK  110  A    between atoms: _249  and  _250
REMARK  111  A    between atoms: _253  and  _255
REMARK  112  A    between atoms: _255  and  _256
REMARK  113  A    between atoms: _258  and  _260
REMARK  114  A    between atoms: _260  and  _261
REMARK  115  A    between atoms: _260  and  _263
REMARK  116  A    between atoms: _263  and  _264
REMARK  117  A    between atoms: _267  and  _269
REMARK  118  A    between atoms: _269  and  _270
REMARK  119  A    between atoms: _269  and  _272
REMARK  120  A    between atoms: _272  and  _273
REMARK  121  A    between atoms: _276  and  _278
REMARK  122  A    between atoms: _278  and  _279
REMARK  123  A    between atoms: _282  and  _284
REMARK  124  A    between atoms: _284  and  _285
REMARK  125  A    between atoms: _284  and  _287
REMARK  126  A    between atoms: _287  and  _288
REMARK  127  A    between atoms: _288  and  _289
REMARK  128  A    between atoms: _289  and  _290
REMARK  129  A    between atoms: _290  and  _291
REMARK  130  A    between atoms: _295  and  _297
REMARK  131  A    between atoms: _297  and  _298
REMARK  132  A    between atoms: _300  and  _302
REMARK  133  A    between atoms: _302  and  _303
REMARK  134  A    between atoms: _302  and  _305
REMARK  135  A    between atoms: _305  and  _306
REMARK  136  A    between atoms: _309  and  _311
REMARK  137  A    between atoms: _311  and  _312
REMARK  138  A    between atoms: _311  and  _314
REMARK  139  A    between atoms: _314  and  _315
REMARK  140  A    between atoms: _321  and  _323
REMARK  141  A    between atoms: _323  and  _324
REMARK  142  A    between atoms: _326  and  _328
REMARK  143  A    between atoms: _328  and  _329
REMARK  144  A    between atoms: _328  and  _331
REMARK  145  A    between atoms: _334  and  _336
REMARK  146  A    between atoms: _336  and  _337
REMARK  147  A    between atoms: _339  and  _341
REMARK  148  A    between atoms: _341  and  _342
REMARK  149  A    between atoms: _341  and  _344
REMARK  150  A    between atoms: _344  and  _345
REMARK  151  A    between atoms: _351  and  _353
REMARK  152  A    between atoms: _353  and  _354
REMARK  153  A    between atoms: _353  and  _356
REMARK  154  A    between atoms: _356  and  _357
REMARK  155  A    between atoms: _362  and  _363
REMARK  156  A    between atoms: _365  and  _367
REMARK  157  A    between atoms: _367  and  _368
REMARK  158  A    between atoms: _367  and  _370
REMARK  159  A    between atoms: _370  and  _371
REMARK  160  A    between atoms: _376  and  _377
REMARK  161  A    between atoms: _379  and  _381
REMARK  162  A    between atoms: _381  and  _382
REMARK  163  A    between atoms: _381  and  _384
REMARK  164  A    between atoms: _387  and  _389
REMARK  165  A    between atoms: _389  and  _390
REMARK  166  A    between atoms: _389  and  _392
REMARK  167  A    between atoms: _392  and  _393
REMARK  168  A    between atoms: _396  and  _398
REMARK  169  A    between atoms: _398  and  _399
REMARK  170  A    between atoms: _398  and  _401
REMARK  171  A    between atoms: _404  and  _406
REMARK  172  A    between atoms: _406  and  _407
REMARK  173  A    between atoms: _406  and  _409
REMARK  174  A    between atoms: _409  and  _410
REMARK  175  A    between atoms: _413  and  _415
REMARK  176  A    between atoms: _415  and  _416
REMARK  177  A    between atoms: _415  and  _418
REMARK  178  A    between atoms: _418  and  _419
REMARK  179  A    between atoms: _422  and  _424
REMARK  180  A    between atoms: _424  and  _425
REMARK  181  A    between atoms: _424  and  _427
REMARK  182  A    between atoms: _427  and  _428
REMARK  183  A    between atoms: _433  and  _435
REMARK  184  A    between atoms: _435  and  _436
REMARK  185  A    between atoms: _435  and  _438
REMARK  186  A    between atoms: _438  and  _439
REMARK  187  A    between atoms: _444  and  _445
REMARK  188  A    between atoms: _447  and  _449
REMARK  189  A    between atoms: _449  and  _450
REMARK  190  A    between atoms: _453  and  _455
REMARK  191  A    between atoms: _455  and  _456
REMARK  192  A    between atoms: _455  and  _458
REMARK  193  A    between atoms: _458  and  _459
REMARK  194  A    between atoms: _469  and  _471
REMARK  195  A    between atoms: _471  and  _472
REMARK  196  A    between atoms: _471  and  _474
REMARK  197  A    between atoms: _474  and  _475
REMARK  198  A    between atoms: _475  and  _476
REMARK  199  A    between atoms: _479  and  _481
REMARK  200  A    between atoms: _481  and  _482
REMARK  201  A    between atoms: _481  and  _484
REMARK  202  A    between atoms: _484  and  _485
REMARK  203  A    between atoms: _487  and  _489
REMARK  204  A    between atoms: _489  and  _490
REMARK  205  A    between atoms: _489  and  _492
REMARK  206  A    between atoms: _492  and  _493
REMARK  207  A    between atoms: _499  and  _501
REMARK  208  A    between atoms: _501  and  _502
REMARK  209  A    between atoms: _501  and  _504
REMARK  210  A    between atoms: _504  and  _505
REMARK  211  A    between atoms: _508  and  _510
REMARK  212  A    between atoms: _510  and  _511
REMARK  213  A    between atoms: _510  and  _513
REMARK  214  A    between atoms: _516  and  _518
REMARK  215  A    between atoms: _518  and  _519
REMARK  216  A    between atoms: _518  and  _521
REMARK  217  A    between atoms: _521  and  _522
REMARK  218  A    between atoms: _525  and  _527
REMARK  219  A    between atoms: _527  and  _528
REMARK  220  A    between atoms: _527  and  _530
REMARK  221  A    between atoms: _530  and  _531
REMARK  222  A    between atoms: _531  and  _532
REMARK  223  A    between atoms: _532  and  _533
REMARK  224  A    between atoms: _533  and  _534
REMARK  225  A    between atoms: _538  and  _540
REMARK  226  A    between atoms: _540  and  _541
REMARK  227  A    between atoms: _540  and  _543
REMARK  228  A    between atoms: _546  and  _548
REMARK  229  A    between atoms: _548  and  _549
REMARK  230  A    between atoms: _548  and  _551
REMARK  231  A    between atoms: _551  and  _552
REMARK                            x       y       z     vdW  Elec       q    Type
REMARK                         _______ _______ _______ _____ _____    ______ ____
ROOT
ATOM      1  O   HOH     1      -0.365   6.867  26.524  0.00  0.00    +0.000 OA
ENDROOT
TORSDOF 0
REMARK  Name = ../refined-set-2016/4cwt/4cwt_pocket.pdb
REMARK  231 active torsions:
REMARK  status: ('A' for Active; 'I' for Inactive)
REMARK    1  A    between atoms: _1  and  _3
REMARK    2  A    between atoms: _3  and  _4
REMARK    3  A    between atoms: _3  and  _6
REMARK    4  A    between atoms: _6  and  _7
REMARK    5  A    between atoms: _13  and  _15
REMARK    6  A    between atoms: _15  and  _16
REMARK    7  A    between atoms: _19  and  _21
REMARK    8  A    between atoms: _21  and  _22
REMARK    9  A    between atoms: _21  and  _24
REMARK   10  A    between atoms: _24  and  _25
REMARK   11  A    between atoms: _31  and  _33
REMARK   12  A    between atoms: _33  and  _34
REMARK   13  A    between atoms: _33  and  _36
REMARK   14  A    between atoms: _36  and  _37
REMARK   15  A    between atoms: _37  and  _38
REMARK   16  A    between atoms: _43  and  _45
REMARK   17  A    between atoms: _45  and  _46
REMARK   18  A    between atoms: _45  and  _48
REMARK   19  A    between atoms: _48  and  _49
REMARK   20  A    between atoms: _52  and  _54
REMARK   21  A    between atoms: _54  and  _55
REMARK   22  A    between atoms: _54  and  _57
REMARK   23  A    between atoms: _57  and  _58
REMARK   24  A    between atoms: _61  and  _63
REMARK   25  A    between atoms: _63  and  _64
REMARK   26  A    between atoms: _63  and  _66
REMARK   27  A    between atoms: _66  and  _67
REMARK   28  A    between atoms: _67  and  _68
REMARK   29  A    between atoms: _70  and  _72
REMARK   30  A    between atoms: _72  and  _73
REMARK   31  A    between atoms: _72  and  _75
REMARK   32  A    between atoms: _75  and  _76
REMARK   33  A    between atoms: _76  and  _77
REMARK   34  A    between atoms: _80  and  _82
REMARK   35  A    between atoms: _82  and  _83
REMARK   36  A    between atoms: _82  and  _85
REMARK   37  A    between atoms: _85  and  _86
REMARK   38  A    between atoms: _89  and  _91
REMARK   39  A    between atoms: _91  and  _92
REMARK   40  A    between atoms: _91  and  _94
REMARK   41  A    between atoms: _94  and  _95
REMARK   42  A    between atoms: _97  and  _99
REMARK   43  A    between atoms: _99  and  _100
REMARK   44  A    between atoms: _99  and  _102
REMARK   45  A    between atoms: _102  and  _103
REMARK   46  A    between atoms: _108  and  _110
REMARK   47  A    between atoms: _110  and  _111
REMARK   48  A    between atoms: _110  and  _113
REMARK   49  A    between atoms: _113  and  _114
REMARK   50  A    between atoms: _116  and  _118
REMARK   51  A    between atoms: _118  and  _119
REMARK   52  A    between atoms: _118  and  _121
REMARK   53  A    between atoms: _121  and  _122
REMARK   54  A    between atoms: _125  and  _127
REMARK   55  A    between atoms: _127  and  _128
REMARK   56  A    between atoms: _131  and  _133
REMARK   57  A    between atoms: _133  and  _134
REMARK   58  A    between atoms: _133  and  _136
REMARK   59  A    between atoms: _136  and  _137
REMARK   60  A    between atoms: _137  and  _138
REMARK   61  A    between atoms: _138  and  _139
REMARK   62  A    between atoms: _139  and  _140
REMARK   63  A    between atoms: _144  and  _146
REMARK   64  A    between atoms: _146  and  _147
REMARK   65  A    between atoms: _146  and  _149
REMARK   66  A    between atoms: _149  and  _150
REMARK   67  A    between atoms: _153  and  _155
REMARK   68  A    between atoms: _155  and  _156
REMARK   69  A    between atoms: _158  and  _160
REMARK   70  A    between atoms: _160  and  _161
REMARK   71  A    between atoms: _160  and  _163
REMARK   72  A    between atoms: _163  and  _164
REMARK   73  A    between atoms: _164  and  _165
REMARK   74  A    between atoms: _167  and  _169
REMARK   75  A    between atoms: _169  and  _170
REMARK   76  A    between atoms: _169  and  _172
REMARK   77  A    between atoms: _172  and  _173
REMARK   78  A    between atoms: _176  and  _178
REMARK   79  A    between atoms: _178  and  _179
REMARK   80  A    between atoms: _178  and  _181
REMARK   81  A    between atoms: _181  and  _182
REMARK   82  A    between atoms: _182  and  _183
REMARK   83  A    between atoms: _183  and  _184
REMARK   84  A    between atoms: _184  and  _185
REMARK   85  A    between atoms: _189  and  _191
REMARK   86  A    between atoms: _191  and  _192
REMARK   87  A    between atoms: _195  and  _197
REMARK   88  A    between atoms: _197  and  _198
REMARK   89  A    between atoms: _197  and  _200
REMARK   90  A    between atoms: _200  and  _201
REMARK   91  A    between atoms: _204  and  _206
REMARK   92  A    between atoms: _206  and  _207
REMARK   93  A    between atoms: _206  and  _209
REMARK   94  A    between atoms: _209  and  _210
REMARK   95  A    between atoms: _213  and  _215
REMARK   96  A    between atoms: _215  and  _216
REMARK   97  A    between atoms: _215  and  _218
REMARK   98  A    between atoms: _218  and  _219
REMARK   99  A    between atoms: _222  and  _224
REMARK  100  A    between atoms: _224  and  _225
REMARK  101  A    between atoms: _224  and  _227
REMARK  102  A    between atoms: _227  and  _228
REMARK  103  A    between atoms: _233  and  _235
REMARK  104  A    between atoms: _235  and  _236
REMARK  105  A    between atoms: _235  and  _238
REMARK  106  A    between atoms: _238  and  _239
REMARK  107  A    between atoms: _244  and  _246
REMARK  108  A    between atoms: _246  and  _247
REMARK  109  A    between atoms: _246  and  _249
REMARK  110  A    between atoms: _249  and  _250
REMARK  111  A    between atoms: _253  and  _255
REMARK  112  A    between atoms: _255  and  _256
REMARK  113  A    between atoms: _258  and  _260
REMARK  114  A    between atoms: _260  and  _261
REMARK  115  A    between atoms: _260  and  _263
REMARK  116  A    between atoms: _263  and  _264
REMARK  117  A    between atoms: _267  and  _269
REMARK  118  A    between atoms: _269  and  _270
REMARK  119  A    between atoms: _269  and  _272
REMARK  120  A    between atoms: _272  and  _273
REMARK  121  A    between atoms: _276  and  _278
REMARK  122  A    between atoms: _278  and  _279
REMARK  123  A    between atoms: _282  and  _284
REMARK  124  A    between atoms: _284  and  _285
REMARK  125  A    between atoms: _284  and  _287
REMARK  126  A    between atoms: _287  and  _288
REMARK  127  A    between atoms: _288  and  _289
REMARK  128  A    between atoms: _289  and  _290
REMARK  129  A    between atoms: _290  and  _291
REMARK  130  A    between atoms: _295  and  _297
REMARK  131  A    between atoms: _297  and  _298
REMARK  132  A    between atoms: _300  and  _302
REMARK  133  A    between atoms: _302  and  _303
REMARK  134  A    between atoms: _302  and  _305
REMARK  135  A    between atoms: _305  and  _306
REMARK  136  A    between atoms: _309  and  _311
REMARK  137  A    between atoms: _311  and  _312
REMARK  138  A    between atoms: _311  and  _314
REMARK  139  A    between atoms: _314  and  _315
REMARK  140  A    between atoms: _321  and  _323
REMARK  141  A    between atoms: _323  and  _324
REMARK  142  A    between atoms: _326  and  _328
REMARK  143  A    between atoms: _328  and  _329
REMARK  144  A    between atoms: _328  and  _331
REMARK  145  A    between atoms: _334  and  _336
REMARK  146  A    between atoms: _336  and  _337
REMARK  147  A    between atoms: _339  and  _341
REMARK  148  A    between atoms: _341  and  _342
REMARK  149  A    between atoms: _341  and  _344
REMARK  150  A    between atoms: _344  and  _345
REMARK  151  A    between atoms: _351  and  _353
REMARK  152  A    between atoms: _353  and  _354
REMARK  153  A    between atoms: _353  and  _356
REMARK  154  A    between atoms: _356  and  _357
REMARK  155  A    between atoms: _362  and  _363
REMARK  156  A    between atoms: _365  and  _367
REMARK  157  A    between atoms: _367  and  _368
REMARK  158  A    between atoms: _367  and  _370
REMARK  159  A    between atoms: _370  and  _371
REMARK  160  A    between atoms: _376  and  _377
REMARK  161  A    between atoms: _379  and  _381
REMARK  162  A    between atoms: _381  and  _382
REMARK  163  A    between atoms: _381  and  _384
REMARK  164  A    between atoms: _387  and  _389
REMARK  165  A    between atoms: _389  and  _390
REMARK  166  A    between atoms: _389  and  _392
REMARK  167  A    between atoms: _392  and  _393
REMARK  168  A    between atoms: _396  and  _398
REMARK  169  A    between atoms: _398  and  _399
REMARK  170  A    between atoms: _398  and  _401
REMARK  171  A    between atoms: _404  and  _406
REMARK  172  A    between atoms: _406  and  _407
REMARK  173  A    between atoms: _406  and  _409
REMARK  174  A    between atoms: _409  and  _410
REMARK  175  A    between atoms: _413  and  _415
REMARK  176  A    between atoms: _415  and  _416
REMARK  177  A    between atoms: _415  and  _418
REMARK  178  A    between atoms: _418  and  _419
REMARK  179  A    between atoms: _422  and  _424
REMARK  180  A    between atoms: _424  and  _425
REMARK  181  A    between atoms: _424  and  _427
REMARK  182  A    between atoms: _427  and  _428
REMARK  183  A    between atoms: _433  and  _435
REMARK  184  A    between atoms: _435  and  _436
REMARK  185  A    between atoms: _435  and  _438
REMARK  186  A    between atoms: _438  and  _439
REMARK  187  A    between atoms: _444  and  _445
REMARK  188  A    between atoms: _447  and  _449
REMARK  189  A    between atoms: _449  and  _450
REMARK  190  A    between atoms: _453  and  _455
REMARK  191  A    between atoms: _455  and  _456
REMARK  192  A    between atoms: _455  and  _458
REMARK  193  A    between atoms: _458  and  _459
REMARK  194  A    between atoms: _469  and  _471
REMARK  195  A    between atoms: _471  and  _472
REMARK  196  A    between atoms: _471  and  _474
REMARK  197  A    between atoms: _474  and  _475
REMARK  198  A    between atoms: _475  and  _476
REMARK  199  A    between atoms: _479  and  _481
REMARK  200  A    between atoms: _481  and  _482
REMARK  201  A    between atoms: _481  and  _484
REMARK  202  A    between atoms: _484  and  _485
REMARK  203  A    between atoms: _487  and  _489
REMARK  204  A    between atoms: _489  and  _490
REMARK  205  A    between atoms: _489  and  _492
REMARK  206  A    between atoms: _492  and  _493
REMARK  207  A    between atoms: _499  and  _501
REMARK  208  A    between atoms: _501  and  _502
REMARK  209  A    between atoms: _501  and  _504
REMARK  210  A    between atoms: _504  and  _505
REMARK  211  A    between atoms: _508  and  _510
REMARK  212  A    between atoms: _510  and  _511
REMARK  213  A    between atoms: _510  and  _513
REMARK  214  A    between atoms: _516  and  _518
REMARK  215  A    between atoms: _518  and  _519
REMARK  216  A    between atoms: _518  and  _521
REMARK  217  A    between atoms: _521  and  _522
REMARK  218  A    between atoms: _525  and  _527
REMARK  219  A    between atoms: _527  and  _528
REMARK  220  A    between atoms: _527  and  _530
REMARK  221  A    between atoms: _530  and  _531
REMARK  222  A    between atoms: _531  and  _532
REMARK  223  A    between atoms: _532  and  _533
REMARK  224  A    between atoms: _533  and  _534
REMARK  225  A    between atoms: _538  and  _540
REMARK  226  A    between atoms: _540  and  _541
REMARK  227  A    between atoms: _540  and  _543
REMARK  228  A    between atoms: _546  and  _548
REMARK  229  A    between atoms: _548  and  _549
REMARK  230  A    between atoms: _548  and  _551
REMARK  231  A    between atoms: _551  and  _552
REMARK                            x       y       z     vdW  Elec       q    Type
REMARK                         _______ _______ _______ _____ _____    ______ ____
ROOT
ATOM      1  O   HOH     1       1.289   5.391  30.447  0.00  0.00    +0.000 OA
ENDROOT
TORSDOF 0
REMARK  Name = ../refined-set-2016/4cwt/4cwt_pocket.pdb
REMARK  231 active torsions:
REMARK  status: ('A' for Active; 'I' for Inactive)
REMARK    1  A    between atoms: _1  and  _3
REMARK    2  A    between atoms: _3  and  _4
REMARK    3  A    between atoms: _3  and  _6
REMARK    4  A    between atoms: _6  and  _7
REMARK    5  A    between atoms: _13  and  _15
REMARK    6  A    between atoms: _15  and  _16
REMARK    7  A    between atoms: _19  and  _21
REMARK    8  A    between atoms: _21  and  _22
REMARK    9  A    between atoms: _21  and  _24
REMARK   10  A    between atoms: _24  and  _25
REMARK   11  A    between atoms: _31  and  _33
REMARK   12  A    between atoms: _33  and  _34
REMARK   13  A    between atoms: _33  and  _36
REMARK   14  A    between atoms: _36  and  _37
REMARK   15  A    between atoms: _37  and  _38
REMARK   16  A    between atoms: _43  and  _45
REMARK   17  A    between atoms: _45  and  _46
REMARK   18  A    between atoms: _45  and  _48
REMARK   19  A    between atoms: _48  and  _49
REMARK   20  A    between atoms: _52  and  _54
REMARK   21  A    between atoms: _54  and  _55
REMARK   22  A    between atoms: _54  and  _57
REMARK   23  A    between atoms: _57  and  _58
REMARK   24  A    between atoms: _61  and  _63
REMARK   25  A    between atoms: _63  and  _64
REMARK   26  A    between atoms: _63  and  _66
REMARK   27  A    between atoms: _66  and  _67
REMARK   28  A    between atoms: _67  and  _68
REMARK   29  A    between atoms: _70  and  _72
REMARK   30  A    between atoms: _72  and  _73
REMARK   31  A    between atoms: _72  and  _75
REMARK   32  A    between atoms: _75  and  _76
REMARK   33  A    between atoms: _76  and  _77
REMARK   34  A    between atoms: _80  and  _82
REMARK   35  A    between atoms: _82  and  _83
REMARK   36  A    between atoms: _82  and  _85
REMARK   37  A    between atoms: _85  and  _86
REMARK   38  A    between atoms: _89  and  _91
REMARK   39  A    between atoms: _91  and  _92
REMARK   40  A    between atoms: _91  and  _94
REMARK   41  A    between atoms: _94  and  _95
REMARK   42  A    between atoms: _97  and  _99
REMARK   43  A    between atoms: _99  and  _100
REMARK   44  A    between atoms: _99  and  _102
REMARK   45  A    between atoms: _102  and  _103
REMARK   46  A    between atoms: _108  and  _110
REMARK   47  A    between atoms: _110  and  _111
REMARK   48  A    between atoms: _110  and  _113
REMARK   49  A    between atoms: _113  and  _114
REMARK   50  A    between atoms: _116  and  _118
REMARK   51  A    between atoms: _118  and  _119
REMARK   52  A    between atoms: _118  and  _121
REMARK   53  A    between atoms: _121  and  _122
REMARK   54  A    between atoms: _125  and  _127
REMARK   55  A    between atoms: _127  and  _128
REMARK   56  A    between atoms: _131  and  _133
REMARK   57  A    between atoms: _133  and  _134
REMARK   58  A    between atoms: _133  and  _136
REMARK   59  A    between atoms: _136  and  _137
REMARK   60  A    between atoms: _137  and  _138
REMARK   61  A    between atoms: _138  and  _139
REMARK   62  A    between atoms: _139  and  _140
REMARK   63  A    between atoms: _144  and  _146
REMARK   64  A    between atoms: _146  and  _147
REMARK   65  A    between atoms: _146  and  _149
REMARK   66  A    between atoms: _149  and  _150
REMARK   67  A    between atoms: _153  and  _155
REMARK   68  A    between atoms: _155  and  _156
REMARK   69  A    between atoms: _158  and  _160
REMARK   70  A    between atoms: _160  and  _161
REMARK   71  A    between atoms: _160  and  _163
REMARK   72  A    between atoms: _163  and  _164
REMARK   73  A    between atoms: _164  and  _165
REMARK   74  A    between atoms: _167  and  _169
REMARK   75  A    between atoms: _169  and  _170
REMARK   76  A    between atoms: _169  and  _172
REMARK   77  A    between atoms: _172  and  _173
REMARK   78  A    between atoms: _176  and  _178
REMARK   79  A    between atoms: _178  and  _179
REMARK   80  A    between atoms: _178  and  _181
REMARK   81  A    between atoms: _181  and  _182
REMARK   82  A    between atoms: _182  and  _183
REMARK   83  A    between atoms: _183  and  _184
REMARK   84  A    between atoms: _184  and  _185
REMARK   85  A    between atoms: _189  and  _191
REMARK   86  A    between atoms: _191  and  _192
REMARK   87  A    between atoms: _195  and  _197
REMARK   88  A    between atoms: _197  and  _198
REMARK   89  A    between atoms: _197  and  _200
REMARK   90  A    between atoms: _200  and  _201
REMARK   91  A    between atoms: _204  and  _206
REMARK   92  A    between atoms: _206  and  _207
REMARK   93  A    between atoms: _206  and  _209
REMARK   94  A    between atoms: _209  and  _210
REMARK   95  A    between atoms: _213  and  _215
REMARK   96  A    between atoms: _215  and  _216
REMARK   97  A    between atoms: _215  and  _218
REMARK   98  A    between atoms: _218  and  _219
REMARK   99  A    between atoms: _222  and  _224
REMARK  100  A    between atoms: _224  and  _225
REMARK  101  A    between atoms: _224  and  _227
REMARK  102  A    between atoms: _227  and  _228
REMARK  103  A    between atoms: _233  and  _235
REMARK  104  A    between atoms: _235  and  _236
REMARK  105  A    between atoms: _235  and  _238
REMARK  106  A    between atoms: _238  and  _239
REMARK  107  A    between atoms: _244  and  _246
REMARK  108  A    between atoms: _246  and  _247
REMARK  109  A    between atoms: _246  and  _249
REMARK  110  A    between atoms: _249  and  _250
REMARK  111  A    between atoms: _253  and  _255
REMARK  112  A    between atoms: _255  and  _256
REMARK  113  A    between atoms: _258  and  _260
REMARK  114  A    between atoms: _260  and  _261
REMARK  115  A    between atoms: _260  and  _263
REMARK  116  A    between atoms: _263  and  _264
REMARK  117  A    between atoms: _267  and  _269
REMARK  118  A    between atoms: _269  and  _270
REMARK  119  A    between atoms: _269  and  _272
REMARK  120  A    between atoms: _272  and  _273
REMARK  121  A    between atoms: _276  and  _278
REMARK  122  A    between atoms: _278  and  _279
REMARK  123  A    between atoms: _282  and  _284
REMARK  124  A    between atoms: _284  and  _285
REMARK  125  A    between atoms: _284  and  _287
REMARK  126  A    between atoms: _287  and  _288
REMARK  127  A    between atoms: _288  and  _289
REMARK  128  A    between atoms: _289  and  _290
REMARK  129  A    between atoms: _290  and  _291
REMARK  130  A    between atoms: _295  and  _297
REMARK  131  A    between atoms: _297  and  _298
REMARK  132  A    between atoms: _300  and  _302
REMARK  133  A    between atoms: _302  and  _303
REMARK  134  A    between atoms: _302  and  _305
REMARK  135  A    between atoms: _305  and  _306
REMARK  136  A    between atoms: _309  and  _311
REMARK  137  A    between atoms: _311  and  _312
REMARK  138  A    between atoms: _311  and  _314
REMARK  139  A    between atoms: _314  and  _315
REMARK  140  A    between atoms: _321  and  _323
REMARK  141  A    between atoms: _323  and  _324
REMARK  142  A    between atoms: _326  and  _328
REMARK  143  A    between atoms: _328  and  _329
REMARK  144  A    between atoms: _328  and  _331
REMARK  145  A    between atoms: _334  and  _336
REMARK  146  A    between atoms: _336  and  _337
REMARK  147  A    between atoms: _339  and  _341
REMARK  148  A    between atoms: _341  and  _342
REMARK  149  A    between atoms: _341  and  _344
REMARK  150  A    between atoms: _344  and  _345
REMARK  151  A    between atoms: _351  and  _353
REMARK  152  A    between atoms: _353  and  _354
REMARK  153  A    between atoms: _353  and  _356
REMARK  154  A    between atoms: _356  and  _357
REMARK  155  A    between atoms: _362  and  _363
REMARK  156  A    between atoms: _365  and  _367
REMARK  157  A    between atoms: _367  and  _368
REMARK  158  A    between atoms: _367  and  _370
REMARK  159  A    between atoms: _370  and  _371
REMARK  160  A    between atoms: _376  and  _377
REMARK  161  A    between atoms: _379  and  _381
REMARK  162  A    between atoms: _381  and  _382
REMARK  163  A    between atoms: _381  and  _384
REMARK  164  A    between atoms: _387  and  _389
REMARK  165  A    between atoms: _389  and  _390
REMARK  166  A    between atoms: _389  and  _392
REMARK  167  A    between atoms: _392  and  _393
REMARK  168  A    between atoms: _396  and  _398
REMARK  169  A    between atoms: _398  and  _399
REMARK  170  A    between atoms: _398  and  _401
REMARK  171  A    between atoms: _404  and  _406
REMARK  172  A    between atoms: _406  and  _407
REMARK  173  A    between atoms: _406  and  _409
REMARK  174  A    between atoms: _409  and  _410
REMARK  175  A    between atoms: _413  and  _415
REMARK  176  A    between atoms: _415  and  _416
REMARK  177  A    between atoms: _415  and  _418
REMARK  178  A    between atoms: _418  and  _419
REMARK  179  A    between atoms: _422  and  _424
REMARK  180  A    between atoms: _424  and  _425
REMARK  181  A    between atoms: _424  and  _427
REMARK  182  A    between atoms: _427  and  _428
REMARK  183  A    between atoms: _433  and  _435
REMARK  184  A    between atoms: _435  and  _436
REMARK  185  A    between atoms: _435  and  _438
REMARK  186  A    between atoms: _438  and  _439
REMARK  187  A    between atoms: _444  and  _445
REMARK  188  A    between atoms: _447  and  _449
REMARK  189  A    between atoms: _449  and  _450
REMARK  190  A    between atoms: _453  and  _455
REMARK  191  A    between atoms: _455  and  _456
REMARK  192  A    between atoms: _455  and  _458
REMARK  193  A    between atoms: _458  and  _459
REMARK  194  A    between atoms: _469  and  _471
REMARK  195  A    between atoms: _471  and  _472
REMARK  196  A    between atoms: _471  and  _474
REMARK  197  A    between atoms: _474  and  _475
REMARK  198  A    between atoms: _475  and  _476
REMARK  199  A    between atoms: _479  and  _481
REMARK  200  A    between atoms: _481  and  _482
REMARK  201  A    between atoms: _481  and  _484
REMARK  202  A    between atoms: _484  and  _485
REMARK  203  A    between atoms: _487  and  _489
REMARK  204  A    between atoms: _489  and  _490
REMARK  205  A    between atoms: _489  and  _492
REMARK  206  A    between atoms: _492  and  _493
REMARK  207  A    between atoms: _499  and  _501
REMARK  208  A    between atoms: _501  and  _502
REMARK  209  A    between atoms: _501  and  _504
REMARK  210  A    between atoms: _504  and  _505
REMARK  211  A    between atoms: _508  and  _510
REMARK  212  A    between atoms: _510  and  _511
REMARK  213  A    between atoms: _510  and  _513
REMARK  214  A    between atoms: _516  and  _518
REMARK  215  A    between atoms: _518  and  _519
REMARK  216  A    between atoms: _518  and  _521
REMARK  217  A    between atoms: _521  and  _522
REMARK  218  A    between atoms: _525  and  _527
REMARK  219  A    between atoms: _527  and  _528
REMARK  220  A    between atoms: _527  and  _530
REMARK  221  A    between atoms: _530  and  _531
REMARK  222  A    between atoms: _531  and  _532
REMARK  223  A    between atoms: _532  and  _533
REMARK  224  A    between atoms: _533  and  _534
REMARK  225  A    between atoms: _538  and  _540
REMARK  226  A    between atoms: _540  and  _541
REMARK  227  A    between atoms: _540  and  _543
REMARK  228  A    between atoms: _546  and  _548
REMARK  229  A    between atoms: _548  and  _549
REMARK  230  A    between atoms: _548  and  _551
REMARK  231  A    between atoms: _551  and  _552
REMARK                            x       y       z     vdW  Elec       q    Type
REMARK                         _______ _______ _______ _____ _____    ______ ____
ROOT
ATOM      1  O   HOH     1       2.828   3.802  29.075  0.00  0.00    +0.000 OA
ENDROOT
TORSDOF 0
REMARK  Name = ../refined-set-2016/4cwt/4cwt_pocket.pdb
REMARK  231 active torsions:
REMARK  status: ('A' for Active; 'I' for Inactive)
REMARK    1  A    between atoms: _1  and  _3
REMARK    2  A    between atoms: _3  and  _4
REMARK    3  A    between atoms: _3  and  _6
REMARK    4  A    between atoms: _6  and  _7
REMARK    5  A    between atoms: _13  and  _15
REMARK    6  A    between atoms: _15  and  _16
REMARK    7  A    between atoms: _19  and  _21
REMARK    8  A    between atoms: _21  and  _22
REMARK    9  A    between atoms: _21  and  _24
REMARK   10  A    between atoms: _24  and  _25
REMARK   11  A    between atoms: _31  and  _33
REMARK   12  A    between atoms: _33  and  _34
REMARK   13  A    between atoms: _33  and  _36
REMARK   14  A    between atoms: _36  and  _37
REMARK   15  A    between atoms: _37  and  _38
REMARK   16  A    between atoms: _43  and  _45
REMARK   17  A    between atoms: _45  and  _46
REMARK   18  A    between atoms: _45  and  _48
REMARK   19  A    between atoms: _48  and  _49
REMARK   20  A    between atoms: _52  and  _54
REMARK   21  A    between atoms: _54  and  _55
REMARK   22  A    between atoms: _54  and  _57
REMARK   23  A    between atoms: _57  and  _58
REMARK   24  A    between atoms: _61  and  _63
REMARK   25  A    between atoms: _63  and  _64
REMARK   26  A    between atoms: _63  and  _66
REMARK   27  A    between atoms: _66  and  _67
REMARK   28  A    between atoms: _67  and  _68
REMARK   29  A    between atoms: _70  and  _72
REMARK   30  A    between atoms: _72  and  _73
REMARK   31  A    between atoms: _72  and  _75
REMARK   32  A    between atoms: _75  and  _76
REMARK   33  A    between atoms: _76  and  _77
REMARK   34  A    between atoms: _80  and  _82
REMARK   35  A    between atoms: _82  and  _83
REMARK   36  A    between atoms: _82  and  _85
REMARK   37  A    between atoms: _85  and  _86
REMARK   38  A    between atoms: _89  and  _91
REMARK   39  A    between atoms: _91  and  _92
REMARK   40  A    between atoms: _91  and  _94
REMARK   41  A    between atoms: _94  and  _95
REMARK   42  A    between atoms: _97  and  _99
REMARK   43  A    between atoms: _99  and  _100
REMARK   44  A    between atoms: _99  and  _102
REMARK   45  A    between atoms: _102  and  _103
REMARK   46  A    between atoms: _108  and  _110
REMARK   47  A    between atoms: _110  and  _111
REMARK   48  A    between atoms: _110  and  _113
REMARK   49  A    between atoms: _113  and  _114
REMARK   50  A    between atoms: _116  and  _118
REMARK   51  A    between atoms: _118  and  _119
REMARK   52  A    between atoms: _118  and  _121
REMARK   53  A    between atoms: _121  and  _122
REMARK   54  A    between atoms: _125  and  _127
REMARK   55  A    between atoms: _127  and  _128
REMARK   56  A    between atoms: _131  and  _133
REMARK   57  A    between atoms: _133  and  _134
REMARK   58  A    between atoms: _133  and  _136
REMARK   59  A    between atoms: _136  and  _137
REMARK   60  A    between atoms: _137  and  _138
REMARK   61  A    between atoms: _138  and  _139
REMARK   62  A    between atoms: _139  and  _140
REMARK   63  A    between atoms: _144  and  _146
REMARK   64  A    between atoms: _146  and  _147
REMARK   65  A    between atoms: _146  and  _149
REMARK   66  A    between atoms: _149  and  _150
REMARK   67  A    between atoms: _153  and  _155
REMARK   68  A    between atoms: _155  and  _156
REMARK   69  A    between atoms: _158  and  _160
REMARK   70  A    between atoms: _160  and  _161
REMARK   71  A    between atoms: _160  and  _163
REMARK   72  A    between atoms: _163  and  _164
REMARK   73  A    between atoms: _164  and  _165
REMARK   74  A    between atoms: _167  and  _169
REMARK   75  A    between atoms: _169  and  _170
REMARK   76  A    between atoms: _169  and  _172
REMARK   77  A    between atoms: _172  and  _173
REMARK   78  A    between atoms: _176  and  _178
REMARK   79  A    between atoms: _178  and  _179
REMARK   80  A    between atoms: _178  and  _181
REMARK   81  A    between atoms: _181  and  _182
REMARK   82  A    between atoms: _182  and  _183
REMARK   83  A    between atoms: _183  and  _184
REMARK   84  A    between atoms: _184  and  _185
REMARK   85  A    between atoms: _189  and  _191
REMARK   86  A    between atoms: _191  and  _192
REMARK   87  A    between atoms: _195  and  _197
REMARK   88  A    between atoms: _197  and  _198
REMARK   89  A    between atoms: _197  and  _200
REMARK   90  A    between atoms: _200  and  _201
REMARK   91  A    between atoms: _204  and  _206
REMARK   92  A    between atoms: _206  and  _207
REMARK   93  A    between atoms: _206  and  _209
REMARK   94  A    between atoms: _209  and  _210
REMARK   95  A    between atoms: _213  and  _215
REMARK   96  A    between atoms: _215  and  _216
REMARK   97  A    between atoms: _215  and  _218
REMARK   98  A    between atoms: _218  and  _219
REMARK   99  A    between atoms: _222  and  _224
REMARK  100  A    between atoms: _224  and  _225
REMARK  101  A    between atoms: _224  and  _227
REMARK  102  A    between atoms: _227  and  _228
REMARK  103  A    between atoms: _233  and  _235
REMARK  104  A    between atoms: _235  and  _236
REMARK  105  A    between atoms: _235  and  _238
REMARK  106  A    between atoms: _238  and  _239
REMARK  107  A    between atoms: _244  and  _246
REMARK  108  A    between atoms: _246  and  _247
REMARK  109  A    between atoms: _246  and  _249
REMARK  110  A    between atoms: _249  and  _250
REMARK  111  A    between atoms: _253  and  _255
REMARK  112  A    between atoms: _255  and  _256
REMARK  113  A    between atoms: _258  and  _260
REMARK  114  A    between atoms: _260  and  _261
REMARK  115  A    between atoms: _260  and  _263
REMARK  116  A    between atoms: _263  and  _264
REMARK  117  A    between atoms: _267  and  _269
REMARK  118  A    between atoms: _269  and  _270
REMARK  119  A    between atoms: _269  and  _272
REMARK  120  A    between atoms: _272  and  _273
REMARK  121  A    between atoms: _276  and  _278
REMARK  122  A    between atoms: _278  and  _279
REMARK  123  A    between atoms: _282  and  _284
REMARK  124  A    between atoms: _284  and  _285
REMARK  125  A    between atoms: _284  and  _287
REMARK  126  A    between atoms: _287  and  _288
REMARK  127  A    between atoms: _288  and  _289
REMARK  128  A    between atoms: _289  and  _290
REMARK  129  A    between atoms: _290  and  _291
REMARK  130  A    between atoms: _295  and  _297
REMARK  131  A    between atoms: _297  and  _298
REMARK  132  A    between atoms: _300  and  _302
REMARK  133  A    between atoms: _302  and  _303
REMARK  134  A    between atoms: _302  and  _305
REMARK  135  A    between atoms: _305  and  _306
REMARK  136  A    between atoms: _309  and  _311
REMARK  137  A    between atoms: _311  and  _312
REMARK  138  A    between atoms: _311  and  _314
REMARK  139  A    between atoms: _314  and  _315
REMARK  140  A    between atoms: _321  and  _323
REMARK  141  A    between atoms: _323  and  _324
REMARK  142  A    between atoms: _326  and  _328
REMARK  143  A    between atoms: _328  and  _329
REMARK  144  A    between atoms: _328  and  _331
REMARK  145  A    between atoms: _334  and  _336
REMARK  146  A    between atoms: _336  and  _337
REMARK  147  A    between atoms: _339  and  _341
REMARK  148  A    between atoms: _341  and  _342
REMARK  149  A    between atoms: _341  and  _344
REMARK  150  A    between atoms: _344  and  _345
REMARK  151  A    between atoms: _351  and  _353
REMARK  152  A    between atoms: _353  and  _354
REMARK  153  A    between atoms: _353  and  _356
REMARK  154  A    between atoms: _356  and  _357
REMARK  155  A    between atoms: _362  and  _363
REMARK  156  A    between atoms: _365  and  _367
REMARK  157  A    between atoms: _367  and  _368
REMARK  158  A    between atoms: _367  and  _370
REMARK  159  A    between atoms: _370  and  _371
REMARK  160  A    between atoms: _376  and  _377
REMARK  161  A    between atoms: _379  and  _381
REMARK  162  A    between atoms: _381  and  _382
REMARK  163  A    between atoms: _381  and  _384
REMARK  164  A    between atoms: _387  and  _389
REMARK  165  A    between atoms: _389  and  _390
REMARK  166  A    between atoms: _389  and  _392
REMARK  167  A    between atoms: _392  and  _393
REMARK  168  A    between atoms: _396  and  _398
REMARK  169  A    between atoms: _398  and  _399
REMARK  170  A    between atoms: _398  and  _401
REMARK  171  A    between atoms: _404  and  _406
REMARK  172  A    between atoms: _406  and  _407
REMARK  173  A    between atoms: _406  and  _409
REMARK  174  A    between atoms: _409  and  _410
REMARK  175  A    between atoms: _413  and  _415
REMARK  176  A    between atoms: _415  and  _416
REMARK  177  A    between atoms: _415  and  _418
REMARK  178  A    between atoms: _418  and  _419
REMARK  179  A    between atoms: _422  and  _424
REMARK  180  A    between atoms: _424  and  _425
REMARK  181  A    between atoms: _424  and  _427
REMARK  182  A    between atoms: _427  and  _428
REMARK  183  A    between atoms: _433  and  _435
REMARK  184  A    between atoms: _435  and  _436
REMARK  185  A    between atoms: _435  and  _438
REMARK  186  A    between atoms: _438  and  _439
REMARK  187  A    between atoms: _444  and  _445
REMARK  188  A    between atoms: _447  and  _449
REMARK  189  A    between atoms: _449  and  _450
REMARK  190  A    between atoms: _453  and  _455
REMARK  191  A    between atoms: _455  and  _456
REMARK  192  A    between atoms: _455  and  _458
REMARK  193  A    between atoms: _458  and  _459
REMARK  194  A    between atoms: _469  and  _471
REMARK  195  A    between atoms: _471  and  _472
REMARK  196  A    between atoms: _471  and  _474
REMARK  197  A    between atoms: _474  and  _475
REMARK  198  A    between atoms: _475  and  _476
REMARK  199  A    between atoms: _479  and  _481
REMARK  200  A    between atoms: _481  and  _482
REMARK  201  A    between atoms: _481  and  _484
REMARK  202  A    between atoms: _484  and  _485
REMARK  203  A    between atoms: _487  and  _489
REMARK  204  A    between atoms: _489  and  _490
REMARK  205  A    between atoms: _489  and  _492
REMARK  206  A    between atoms: _492  and  _493
REMARK  207  A    between atoms: _499  and  _501
REMARK  208  A    between atoms: _501  and  _502
REMARK  209  A    between atoms: _501  and  _504
REMARK  210  A    between atoms: _504  and  _505
REMARK  211  A    between atoms: _508  and  _510
REMARK  212  A    between atoms: _510  and  _511
REMARK  213  A    between atoms: _510  and  _513
REMARK  214  A    between atoms: _516  and  _518
REMARK  215  A    between atoms: _518  and  _519
REMARK  216  A    between atoms: _518  and  _521
REMARK  217  A    between atoms: _521  and  _522
REMARK  218  A    between atoms: _525  and  _527
REMARK  219  A    between atoms: _527  and  _528
REMARK  220  A    between atoms: _527  and  _530
REMARK  221  A    between atoms: _530  and  _531
REMARK  222  A    between atoms: _531  and  _532
REMARK  223  A    between atoms: _532  and  _533
REMARK  224  A    between atoms: _533  and  _534
REMARK  225  A    between atoms: _538  and  _540
REMARK  226  A    between atoms: _540  and  _541
REMARK  227  A    between atoms: _540  and  _543
REMARK  228  A    between atoms: _546  and  _548
REMARK  229  A    between atoms: _548  and  _549
REMARK  230  A    between atoms: _548  and  _551
REMARK  231  A    between atoms: _551  and  _552
REMARK                            x       y       z     vdW  Elec       q    Type
REMARK                         _______ _______ _______ _____ _____    ______ ____
ROOT
ATOM      1  O   HOH     1      -4.147  11.048  27.728  0.00  0.00    +0.000 OA
ENDROOT
TORSDOF 0
REMARK  Name = ../refined-set-2016/4cwt/4cwt_pocket.pdb
REMARK  231 active torsions:
REMARK  status: ('A' for Active; 'I' for Inactive)
REMARK    1  A    between atoms: _1  and  _3
REMARK    2  A    between atoms: _3  and  _4
REMARK    3  A    between atoms: _3  and  _6
REMARK    4  A    between atoms: _6  and  _7
REMARK    5  A    between atoms: _13  and  _15
REMARK    6  A    between atoms: _15  and  _16
REMARK    7  A    between atoms: _19  and  _21
REMARK    8  A    between atoms: _21  and  _22
REMARK    9  A    between atoms: _21  and  _24
REMARK   10  A    between atoms: _24  and  _25
REMARK   11  A    between atoms: _31  and  _33
REMARK   12  A    between atoms: _33  and  _34
REMARK   13  A    between atoms: _33  and  _36
REMARK   14  A    between atoms: _36  and  _37
REMARK   15  A    between atoms: _37  and  _38
REMARK   16  A    between atoms: _43  and  _45
REMARK   17  A    between atoms: _45  and  _46
REMARK   18  A    between atoms: _45  and  _48
REMARK   19  A    between atoms: _48  and  _49
REMARK   20  A    between atoms: _52  and  _54
REMARK   21  A    between atoms: _54  and  _55
REMARK   22  A    between atoms: _54  and  _57
REMARK   23  A    between atoms: _57  and  _58
REMARK   24  A    between atoms: _61  and  _63
REMARK   25  A    between atoms: _63  and  _64
REMARK   26  A    between atoms: _63  and  _66
REMARK   27  A    between atoms: _66  and  _67
REMARK   28  A    between atoms: _67  and  _68
REMARK   29  A    between atoms: _70  and  _72
REMARK   30  A    between atoms: _72  and  _73
REMARK   31  A    between atoms: _72  and  _75
REMARK   32  A    between atoms: _75  and  _76
REMARK   33  A    between atoms: _76  and  _77
REMARK   34  A    between atoms: _80  and  _82
REMARK   35  A    between atoms: _82  and  _83
REMARK   36  A    between atoms: _82  and  _85
REMARK   37  A    between atoms: _85  and  _86
REMARK   38  A    between atoms: _89  and  _91
REMARK   39  A    between atoms: _91  and  _92
REMARK   40  A    between atoms: _91  and  _94
REMARK   41  A    between atoms: _94  and  _95
REMARK   42  A    between atoms: _97  and  _99
REMARK   43  A    between atoms: _99  and  _100
REMARK   44  A    between atoms: _99  and  _102
REMARK   45  A    between atoms: _102  and  _103
REMARK   46  A    between atoms: _108  and  _110
REMARK   47  A    between atoms: _110  and  _111
REMARK   48  A    between atoms: _110  and  _113
REMARK   49  A    between atoms: _113  and  _114
REMARK   50  A    between atoms: _116  and  _118
REMARK   51  A    between atoms: _118  and  _119
REMARK   52  A    between atoms: _118  and  _121
REMARK   53  A    between atoms: _121  and  _122
REMARK   54  A    between atoms: _125  and  _127
REMARK   55  A    between atoms: _127  and  _128
REMARK   56  A    between atoms: _131  and  _133
REMARK   57  A    between atoms: _133  and  _134
REMARK   58  A    between atoms: _133  and  _136
REMARK   59  A    between atoms: _136  and  _137
REMARK   60  A    between atoms: _137  and  _138
REMARK   61  A    between atoms: _138  and  _139
REMARK   62  A    between atoms: _139  and  _140
REMARK   63  A    between atoms: _144  and  _146
REMARK   64  A    between atoms: _146  and  _147
REMARK   65  A    between atoms: _146  and  _149
REMARK   66  A    between atoms: _149  and  _150
REMARK   67  A    between atoms: _153  and  _155
REMARK   68  A    between atoms: _155  and  _156
REMARK   69  A    between atoms: _158  and  _160
REMARK   70  A    between atoms: _160  and  _161
REMARK   71  A    between atoms: _160  and  _163
REMARK   72  A    between atoms: _163  and  _164
REMARK   73  A    between atoms: _164  and  _165
REMARK   74  A    between atoms: _167  and  _169
REMARK   75  A    between atoms: _169  and  _170
REMARK   76  A    between atoms: _169  and  _172
REMARK   77  A    between atoms: _172  and  _173
REMARK   78  A    between atoms: _176  and  _178
REMARK   79  A    between atoms: _178  and  _179
REMARK   80  A    between atoms: _178  and  _181
REMARK   81  A    between atoms: _181  and  _182
REMARK   82  A    between atoms: _182  and  _183
REMARK   83  A    between atoms: _183  and  _184
REMARK   84  A    between atoms: _184  and  _185
REMARK   85  A    between atoms: _189  and  _191
REMARK   86  A    between atoms: _191  and  _192
REMARK   87  A    between atoms: _195  and  _197
REMARK   88  A    between atoms: _197  and  _198
REMARK   89  A    between atoms: _197  and  _200
REMARK   90  A    between atoms: _200  and  _201
REMARK   91  A    between atoms: _204  and  _206
REMARK   92  A    between atoms: _206  and  _207
REMARK   93  A    between atoms: _206  and  _209
REMARK   94  A    between atoms: _209  and  _210
REMARK   95  A    between atoms: _213  and  _215
REMARK   96  A    between atoms: _215  and  _216
REMARK   97  A    between atoms: _215  and  _218
REMARK   98  A    between atoms: _218  and  _219
REMARK   99  A    between atoms: _222  and  _224
REMARK  100  A    between atoms: _224  and  _225
REMARK  101  A    between atoms: _224  and  _227
REMARK  102  A    between atoms: _227  and  _228
REMARK  103  A    between atoms: _233  and  _235
REMARK  104  A    between atoms: _235  and  _236
REMARK  105  A    between atoms: _235  and  _238
REMARK  106  A    between atoms: _238  and  _239
REMARK  107  A    between atoms: _244  and  _246
REMARK  108  A    between atoms: _246  and  _247
REMARK  109  A    between atoms: _246  and  _249
REMARK  110  A    between atoms: _249  and  _250
REMARK  111  A    between atoms: _253  and  _255
REMARK  112  A    between atoms: _255  and  _256
REMARK  113  A    between atoms: _258  and  _260
REMARK  114  A    between atoms: _260  and  _261
REMARK  115  A    between atoms: _260  and  _263
REMARK  116  A    between atoms: _263  and  _264
REMARK  117  A    between atoms: _267  and  _269
REMARK  118  A    between atoms: _269  and  _270
REMARK  119  A    between atoms: _269  and  _272
REMARK  120  A    between atoms: _272  and  _273
REMARK  121  A    between atoms: _276  and  _278
REMARK  122  A    between atoms: _278  and  _279
REMARK  123  A    between atoms: _282  and  _284
REMARK  124  A    between atoms: _284  and  _285
REMARK  125  A    between atoms: _284  and  _287
REMARK  126  A    between atoms: _287  and  _288
REMARK  127  A    between atoms: _288  and  _289
REMARK  128  A    between atoms: _289  and  _290
REMARK  129  A    between atoms: _290  and  _291
REMARK  130  A    between atoms: _295  and  _297
REMARK  131  A    between atoms: _297  and  _298
REMARK  132  A    between atoms: _300  and  _302
REMARK  133  A    between atoms: _302  and  _303
REMARK  134  A    between atoms: _302  and  _305
REMARK  135  A    between atoms: _305  and  _306
REMARK  136  A    between atoms: _309  and  _311
REMARK  137  A    between atoms: _311  and  _312
REMARK  138  A    between atoms: _311  and  _314
REMARK  139  A    between atoms: _314  and  _315
REMARK  140  A    between atoms: _321  and  _323
REMARK  141  A    between atoms: _323  and  _324
REMARK  142  A    between atoms: _326  and  _328
REMARK  143  A    between atoms: _328  and  _329
REMARK  144  A    between atoms: _328  and  _331
REMARK  145  A    between atoms: _334  and  _336
REMARK  146  A    between atoms: _336  and  _337
REMARK  147  A    between atoms: _339  and  _341
REMARK  148  A    between atoms: _341  and  _342
REMARK  149  A    between atoms: _341  and  _344
REMARK  150  A    between atoms: _344  and  _345
REMARK  151  A    between atoms: _351  and  _353
REMARK  152  A    between atoms: _353  and  _354
REMARK  153  A    between atoms: _353  and  _356
REMARK  154  A    between atoms: _356  and  _357
REMARK  155  A    between atoms: _362  and  _363
REMARK  156  A    between atoms: _365  and  _367
REMARK  157  A    between atoms: _367  and  _368
REMARK  158  A    between atoms: _367  and  _370
REMARK  159  A    between atoms: _370  and  _371
REMARK  160  A    between atoms: _376  and  _377
REMARK  161  A    between atoms: _379  and  _381
REMARK  162  A    between atoms: _381  and  _382
REMARK  163  A    between atoms: _381  and  _384
REMARK  164  A    between atoms: _387  and  _389
REMARK  165  A    between atoms: _389  and  _390
REMARK  166  A    between atoms: _389  and  _392
REMARK  167  A    between atoms: _392  and  _393
REMARK  168  A    between atoms: _396  and  _398
REMARK  169  A    between atoms: _398  and  _399
REMARK  170  A    between atoms: _398  and  _401
REMARK  171  A    between atoms: _404  and  _406
REMARK  172  A    between atoms: _406  and  _407
REMARK  173  A    between atoms: _406  and  _409
REMARK  174  A    between atoms: _409  and  _410
REMARK  175  A    between atoms: _413  and  _415
REMARK  176  A    between atoms: _415  and  _416
REMARK  177  A    between atoms: _415  and  _418
REMARK  178  A    between atoms: _418  and  _419
REMARK  179  A    between atoms: _422  and  _424
REMARK  180  A    between atoms: _424  and  _425
REMARK  181  A    between atoms: _424  and  _427
REMARK  182  A    between atoms: _427  and  _428
REMARK  183  A    between atoms: _433  and  _435
REMARK  184  A    between atoms: _435  and  _436
REMARK  185  A    between atoms: _435  and  _438
REMARK  186  A    between atoms: _438  and  _439
REMARK  187  A    between atoms: _444  and  _445
REMARK  188  A    between atoms: _447  and  _449
REMARK  189  A    between atoms: _449  and  _450
REMARK  190  A    between atoms: _453  and  _455
REMARK  191  A    between atoms: _455  and  _456
REMARK  192  A    between atoms: _455  and  _458
REMARK  193  A    between atoms: _458  and  _459
REMARK  194  A    between atoms: _469  and  _471
REMARK  195  A    between atoms: _471  and  _472
REMARK  196  A    between atoms: _471  and  _474
REMARK  197  A    between atoms: _474  and  _475
REMARK  198  A    between atoms: _475  and  _476
REMARK  199  A    between atoms: _479  and  _481
REMARK  200  A    between atoms: _481  and  _482
REMARK  201  A    between atoms: _481  and  _484
REMARK  202  A    between atoms: _484  and  _485
REMARK  203  A    between atoms: _487  and  _489
REMARK  204  A    between atoms: _489  and  _490
REMARK  205  A    between atoms: _489  and  _492
REMARK  206  A    between atoms: _492  and  _493
REMARK  207  A    between atoms: _499  and  _501
REMARK  208  A    between atoms: _501  and  _502
REMARK  209  A    between atoms: _501  and  _504
REMARK  210  A    between atoms: _504  and  _505
REMARK  211  A    between atoms: _508  and  _510
REMARK  212  A    between atoms: _510  and  _511
REMARK  213  A    between atoms: _510  and  _513
REMARK  214  A    between atoms: _516  and  _518
REMARK  215  A    between atoms: _518  and  _519
REMARK  216  A    between atoms: _518  and  _521
REMARK  217  A    between atoms: _521  and  _522
REMARK  218  A    between atoms: _525  and  _527
REMARK  219  A    between atoms: _527  and  _528
REMARK  220  A    between atoms: _527  and  _530
REMARK  221  A    between atoms: _530  and  _531
REMARK  222  A    between atoms: _531  and  _532
REMARK  223  A    between atoms: _532  and  _533
REMARK  224  A    between atoms: _533  and  _534
REMARK  225  A    between atoms: _538  and  _540
REMARK  226  A    between atoms: _540  and  _541
REMARK  227  A    between atoms: _540  and  _543
REMARK  228  A    between atoms: _546  and  _548
REMARK  229  A    between atoms: _548  and  _549
REMARK  230  A    between atoms: _548  and  _551
REMARK  231  A    between atoms: _551  and  _552
REMARK                            x       y       z     vdW  Elec       q    Type
REMARK                         _______ _______ _______ _____ _____    ______ ____
ROOT
ATOM      1  O   HOH     1       1.308   7.965  31.684  0.00  0.00    +0.000 OA
ENDROOT
TORSDOF 0
REMARK  Name = ../refined-set-2016/4cwt/4cwt_pocket.pdb
REMARK  231 active torsions:
REMARK  status: ('A' for Active; 'I' for Inactive)
REMARK    1  A    between atoms: _1  and  _3
REMARK    2  A    between atoms: _3  and  _4
REMARK    3  A    between atoms: _3  and  _6
REMARK    4  A    between atoms: _6  and  _7
REMARK    5  A    between atoms: _13  and  _15
REMARK    6  A    between atoms: _15  and  _16
REMARK    7  A    between atoms: _19  and  _21
REMARK    8  A    between atoms: _21  and  _22
REMARK    9  A    between atoms: _21  and  _24
REMARK   10  A    between atoms: _24  and  _25
REMARK   11  A    between atoms: _31  and  _33
REMARK   12  A    between atoms: _33  and  _34
REMARK   13  A    between atoms: _33  and  _36
REMARK   14  A    between atoms: _36  and  _37
REMARK   15  A    between atoms: _37  and  _38
REMARK   16  A    between atoms: _43  and  _45
REMARK   17  A    between atoms: _45  and  _46
REMARK   18  A    between atoms: _45  and  _48
REMARK   19  A    between atoms: _48  and  _49
REMARK   20  A    between atoms: _52  and  _54
REMARK   21  A    between atoms: _54  and  _55
REMARK   22  A    between atoms: _54  and  _57
REMARK   23  A    between atoms: _57  and  _58
REMARK   24  A    between atoms: _61  and  _63
REMARK   25  A    between atoms: _63  and  _64
REMARK   26  A    between atoms: _63  and  _66
REMARK   27  A    between atoms: _66  and  _67
REMARK   28  A    between atoms: _67  and  _68
REMARK   29  A    between atoms: _70  and  _72
REMARK   30  A    between atoms: _72  and  _73
REMARK   31  A    between atoms: _72  and  _75
REMARK   32  A    between atoms: _75  and  _76
REMARK   33  A    between atoms: _76  and  _77
REMARK   34  A    between atoms: _80  and  _82
REMARK   35  A    between atoms: _82  and  _83
REMARK   36  A    between atoms: _82  and  _85
REMARK   37  A    between atoms: _85  and  _86
REMARK   38  A    between atoms: _89  and  _91
REMARK   39  A    between atoms: _91  and  _92
REMARK   40  A    between atoms: _91  and  _94
REMARK   41  A    between atoms: _94  and  _95
REMARK   42  A    between atoms: _97  and  _99
REMARK   43  A    between atoms: _99  and  _100
REMARK   44  A    between atoms: _99  and  _102
REMARK   45  A    between atoms: _102  and  _103
REMARK   46  A    between atoms: _108  and  _110
REMARK   47  A    between atoms: _110  and  _111
REMARK   48  A    between atoms: _110  and  _113
REMARK   49  A    between atoms: _113  and  _114
REMARK   50  A    between atoms: _116  and  _118
REMARK   51  A    between atoms: _118  and  _119
REMARK   52  A    between atoms: _118  and  _121
REMARK   53  A    between atoms: _121  and  _122
REMARK   54  A    between atoms: _125  and  _127
REMARK   55  A    between atoms: _127  and  _128
REMARK   56  A    between atoms: _131  and  _133
REMARK   57  A    between atoms: _133  and  _134
REMARK   58  A    between atoms: _133  and  _136
REMARK   59  A    between atoms: _136  and  _137
REMARK   60  A    between atoms: _137  and  _138
REMARK   61  A    between atoms: _138  and  _139
REMARK   62  A    between atoms: _139  and  _140
REMARK   63  A    between atoms: _144  and  _146
REMARK   64  A    between atoms: _146  and  _147
REMARK   65  A    between atoms: _146  and  _149
REMARK   66  A    between atoms: _149  and  _150
REMARK   67  A    between atoms: _153  and  _155
REMARK   68  A    between atoms: _155  and  _156
REMARK   69  A    between atoms: _158  and  _160
REMARK   70  A    between atoms: _160  and  _161
REMARK   71  A    between atoms: _160  and  _163
REMARK   72  A    between atoms: _163  and  _164
REMARK   73  A    between atoms: _164  and  _165
REMARK   74  A    between atoms: _167  and  _169
REMARK   75  A    between atoms: _169  and  _170
REMARK   76  A    between atoms: _169  and  _172
REMARK   77  A    between atoms: _172  and  _173
REMARK   78  A    between atoms: _176  and  _178
REMARK   79  A    between atoms: _178  and  _179
REMARK   80  A    between atoms: _178  and  _181
REMARK   81  A    between atoms: _181  and  _182
REMARK   82  A    between atoms: _182  and  _183
REMARK   83  A    between atoms: _183  and  _184
REMARK   84  A    between atoms: _184  and  _185
REMARK   85  A    between atoms: _189  and  _191
REMARK   86  A    between atoms: _191  and  _192
REMARK   87  A    between atoms: _195  and  _197
REMARK   88  A    between atoms: _197  and  _198
REMARK   89  A    between atoms: _197  and  _200
REMARK   90  A    between atoms: _200  and  _201
REMARK   91  A    between atoms: _204  and  _206
REMARK   92  A    between atoms: _206  and  _207
REMARK   93  A    between atoms: _206  and  _209
REMARK   94  A    between atoms: _209  and  _210
REMARK   95  A    between atoms: _213  and  _215
REMARK   96  A    between atoms: _215  and  _216
REMARK   97  A    between atoms: _215  and  _218
REMARK   98  A    between atoms: _218  and  _219
REMARK   99  A    between atoms: _222  and  _224
REMARK  100  A    between atoms: _224  and  _225
REMARK  101  A    between atoms: _224  and  _227
REMARK  102  A    between atoms: _227  and  _228
REMARK  103  A    between atoms: _233  and  _235
REMARK  104  A    between atoms: _235  and  _236
REMARK  105  A    between atoms: _235  and  _238
REMARK  106  A    between atoms: _238  and  _239
REMARK  107  A    between atoms: _244  and  _246
REMARK  108  A    between atoms: _246  and  _247
REMARK  109  A    between atoms: _246  and  _249
REMARK  110  A    between atoms: _249  and  _250
REMARK  111  A    between atoms: _253  and  _255
REMARK  112  A    between atoms: _255  and  _256
REMARK  113  A    between atoms: _258  and  _260
REMARK  114  A    between atoms: _260  and  _261
REMARK  115  A    between atoms: _260  and  _263
REMARK  116  A    between atoms: _263  and  _264
REMARK  117  A    between atoms: _267  and  _269
REMARK  118  A    between atoms: _269  and  _270
REMARK  119  A    between atoms: _269  and  _272
REMARK  120  A    between atoms: _272  and  _273
REMARK  121  A    between atoms: _276  and  _278
REMARK  122  A    between atoms: _278  and  _279
REMARK  123  A    between atoms: _282  and  _284
REMARK  124  A    between atoms: _284  and  _285
REMARK  125  A    between atoms: _284  and  _287
REMARK  126  A    between atoms: _287  and  _288
REMARK  127  A    between atoms: _288  and  _289
REMARK  128  A    between atoms: _289  and  _290
REMARK  129  A    between atoms: _290  and  _291
REMARK  130  A    between atoms: _295  and  _297
REMARK  131  A    between atoms: _297  and  _298
REMARK  132  A    between atoms: _300  and  _302
REMARK  133  A    between atoms: _302  and  _303
REMARK  134  A    between atoms: _302  and  _305
REMARK  135  A    between atoms: _305  and  _306
REMARK  136  A    between atoms: _309  and  _311
REMARK  137  A    between atoms: _311  and  _312
REMARK  138  A    between atoms: _311  and  _314
REMARK  139  A    between atoms: _314  and  _315
REMARK  140  A    between atoms: _321  and  _323
REMARK  141  A    between atoms: _323  and  _324
REMARK  142  A    between atoms: _326  and  _328
REMARK  143  A    between atoms: _328  and  _329
REMARK  144  A    between atoms: _328  and  _331
REMARK  145  A    between atoms: _334  and  _336
REMARK  146  A    between atoms: _336  and  _337
REMARK  147  A    between atoms: _339  and  _341
REMARK  148  A    between atoms: _341  and  _342
REMARK  149  A    between atoms: _341  and  _344
REMARK  150  A    between atoms: _344  and  _345
REMARK  151  A    between atoms: _351  and  _353
REMARK  152  A    between atoms: _353  and  _354
REMARK  153  A    between atoms: _353  and  _356
REMARK  154  A    between atoms: _356  and  _357
REMARK  155  A    between atoms: _362  and  _363
REMARK  156  A    between atoms: _365  and  _367
REMARK  157  A    between atoms: _367  and  _368
REMARK  158  A    between atoms: _367  and  _370
REMARK  159  A    between atoms: _370  and  _371
REMARK  160  A    between atoms: _376  and  _377
REMARK  161  A    between atoms: _379  and  _381
REMARK  162  A    between atoms: _381  and  _382
REMARK  163  A    between atoms: _381  and  _384
REMARK  164  A    between atoms: _387  and  _389
REMARK  165  A    between atoms: _389  and  _390
REMARK  166  A    between atoms: _389  and  _392
REMARK  167  A    between atoms: _392  and  _393
REMARK  168  A    between atoms: _396  and  _398
REMARK  169  A    between atoms: _398  and  _399
REMARK  170  A    between atoms: _398  and  _401
REMARK  171  A    between atoms: _404  and  _406
REMARK  172  A    between atoms: _406  and  _407
REMARK  173  A    between atoms: _406  and  _409
REMARK  174  A    between atoms: _409  and  _410
REMARK  175  A    between atoms: _413  and  _415
REMARK  176  A    between atoms: _415  and  _416
REMARK  177  A    between atoms: _415  and  _418
REMARK  178  A    between atoms: _418  and  _419
REMARK  179  A    between atoms: _422  and  _424
REMARK  180  A    between atoms: _424  and  _425
REMARK  181  A    between atoms: _424  and  _427
REMARK  182  A    between atoms: _427  and  _428
REMARK  183  A    between atoms: _433  and  _435
REMARK  184  A    between atoms: _435  and  _436
REMARK  185  A    between atoms: _435  and  _438
REMARK  186  A    between atoms: _438  and  _439
REMARK  187  A    between atoms: _444  and  _445
REMARK  188  A    between atoms: _447  and  _449
REMARK  189  A    between atoms: _449  and  _450
REMARK  190  A    between atoms: _453  and  _455
REMARK  191  A    between atoms: _455  and  _456
REMARK  192  A    between atoms: _455  and  _458
REMARK  193  A    between atoms: _458  and  _459
REMARK  194  A    between atoms: _469  and  _471
REMARK  195  A    between atoms: _471  and  _472
REMARK  196  A    between atoms: _471  and  _474
REMARK  197  A    between atoms: _474  and  _475
REMARK  198  A    between atoms: _475  and  _476
REMARK  199  A    between atoms: _479  and  _481
REMARK  200  A    between atoms: _481  and  _482
REMARK  201  A    between atoms: _481  and  _484
REMARK  202  A    between atoms: _484  and  _485
REMARK  203  A    between atoms: _487  and  _489
REMARK  204  A    between atoms: _489  and  _490
REMARK  205  A    between atoms: _489  and  _492
REMARK  206  A    between atoms: _492  and  _493
REMARK  207  A    between atoms: _499  and  _501
REMARK  208  A    between atoms: _501  and  _502
REMARK  209  A    between atoms: _501  and  _504
REMARK  210  A    between atoms: _504  and  _505
REMARK  211  A    between atoms: _508  and  _510
REMARK  212  A    between atoms: _510  and  _511
REMARK  213  A    between atoms: _510  and  _513
REMARK  214  A    between atoms: _516  and  _518
REMARK  215  A    between atoms: _518  and  _519
REMARK  216  A    between atoms: _518  and  _521
REMARK  217  A    between atoms: _521  and  _522
REMARK  218  A    between atoms: _525  and  _527
REMARK  219  A    between atoms: _527  and  _528
REMARK  220  A    between atoms: _527  and  _530
REMARK  221  A    between atoms: _530  and  _531
REMARK  222  A    between atoms: _531  and  _532
REMARK  223  A    between atoms: _532  and  _533
REMARK  224  A    between atoms: _533  and  _534
REMARK  225  A    between atoms: _538  and  _540
REMARK  226  A    between atoms: _540  and  _541
REMARK  227  A    between atoms: _540  and  _543
REMARK  228  A    between atoms: _546  and  _548
REMARK  229  A    between atoms: _548  and  _549
REMARK  230  A    between atoms: _548  and  _551
REMARK  231  A    between atoms: _551  and  _552
REMARK                            x       y       z     vdW  Elec       q    Type
REMARK                         _______ _______ _______ _____ _____    ______ ____
ROOT
ATOM      1  O   HOH     1      -0.395   9.068  28.212  0.00  0.00    +0.000 OA
ENDROOT
TORSDOF 0
REMARK  Name = ../refined-set-2016/4cwt/4cwt_pocket.pdb
REMARK  231 active torsions:
REMARK  status: ('A' for Active; 'I' for Inactive)
REMARK    1  A    between atoms: _1  and  _3
REMARK    2  A    between atoms: _3  and  _4
REMARK    3  A    between atoms: _3  and  _6
REMARK    4  A    between atoms: _6  and  _7
REMARK    5  A    between atoms: _13  and  _15
REMARK    6  A    between atoms: _15  and  _16
REMARK    7  A    between atoms: _19  and  _21
REMARK    8  A    between atoms: _21  and  _22
REMARK    9  A    between atoms: _21  and  _24
REMARK   10  A    between atoms: _24  and  _25
REMARK   11  A    between atoms: _31  and  _33
REMARK   12  A    between atoms: _33  and  _34
REMARK   13  A    between atoms: _33  and  _36
REMARK   14  A    between atoms: _36  and  _37
REMARK   15  A    between atoms: _37  and  _38
REMARK   16  A    between atoms: _43  and  _45
REMARK   17  A    between atoms: _45  and  _46
REMARK   18  A    between atoms: _45  and  _48
REMARK   19  A    between atoms: _48  and  _49
REMARK   20  A    between atoms: _52  and  _54
REMARK   21  A    between atoms: _54  and  _55
REMARK   22  A    between atoms: _54  and  _57
REMARK   23  A    between atoms: _57  and  _58
REMARK   24  A    between atoms: _61  and  _63
REMARK   25  A    between atoms: _63  and  _64
REMARK   26  A    between atoms: _63  and  _66
REMARK   27  A    between atoms: _66  and  _67
REMARK   28  A    between atoms: _67  and  _68
REMARK   29  A    between atoms: _70  and  _72
REMARK   30  A    between atoms: _72  and  _73
REMARK   31  A    between atoms: _72  and  _75
REMARK   32  A    between atoms: _75  and  _76
REMARK   33  A    between atoms: _76  and  _77
REMARK   34  A    between atoms: _80  and  _82
REMARK   35  A    between atoms: _82  and  _83
REMARK   36  A    between atoms: _82  and  _85
REMARK   37  A    between atoms: _85  and  _86
REMARK   38  A    between atoms: _89  and  _91
REMARK   39  A    between atoms: _91  and  _92
REMARK   40  A    between atoms: _91  and  _94
REMARK   41  A    between atoms: _94  and  _95
REMARK   42  A    between atoms: _97  and  _99
REMARK   43  A    between atoms: _99  and  _100
REMARK   44  A    between atoms: _99  and  _102
REMARK   45  A    between atoms: _102  and  _103
REMARK   46  A    between atoms: _108  and  _110
REMARK   47  A    between atoms: _110  and  _111
REMARK   48  A    between atoms: _110  and  _113
REMARK   49  A    between atoms: _113  and  _114
REMARK   50  A    between atoms: _116  and  _118
REMARK   51  A    between atoms: _118  and  _119
REMARK   52  A    between atoms: _118  and  _121
REMARK   53  A    between atoms: _121  and  _122
REMARK   54  A    between atoms: _125  and  _127
REMARK   55  A    between atoms: _127  and  _128
REMARK   56  A    between atoms: _131  and  _133
REMARK   57  A    between atoms: _133  and  _134
REMARK   58  A    between atoms: _133  and  _136
REMARK   59  A    between atoms: _136  and  _137
REMARK   60  A    between atoms: _137  and  _138
REMARK   61  A    between atoms: _138  and  _139
REMARK   62  A    between atoms: _139  and  _140
REMARK   63  A    between atoms: _144  and  _146
REMARK   64  A    between atoms: _146  and  _147
REMARK   65  A    between atoms: _146  and  _149
REMARK   66  A    between atoms: _149  and  _150
REMARK   67  A    between atoms: _153  and  _155
REMARK   68  A    between atoms: _155  and  _156
REMARK   69  A    between atoms: _158  and  _160
REMARK   70  A    between atoms: _160  and  _161
REMARK   71  A    between atoms: _160  and  _163
REMARK   72  A    between atoms: _163  and  _164
REMARK   73  A    between atoms: _164  and  _165
REMARK   74  A    between atoms: _167  and  _169
REMARK   75  A    between atoms: _169  and  _170
REMARK   76  A    between atoms: _169  and  _172
REMARK   77  A    between atoms: _172  and  _173
REMARK   78  A    between atoms: _176  and  _178
REMARK   79  A    between atoms: _178  and  _179
REMARK   80  A    between atoms: _178  and  _181
REMARK   81  A    between atoms: _181  and  _182
REMARK   82  A    between atoms: _182  and  _183
REMARK   83  A    between atoms: _183  and  _184
REMARK   84  A    between atoms: _184  and  _185
REMARK   85  A    between atoms: _189  and  _191
REMARK   86  A    between atoms: _191  and  _192
REMARK   87  A    between atoms: _195  and  _197
REMARK   88  A    between atoms: _197  and  _198
REMARK   89  A    between atoms: _197  and  _200
REMARK   90  A    between atoms: _200  and  _201
REMARK   91  A    between atoms: _204  and  _206
REMARK   92  A    between atoms: _206  and  _207
REMARK   93  A    between atoms: _206  and  _209
REMARK   94  A    between atoms: _209  and  _210
REMARK   95  A    between atoms: _213  and  _215
REMARK   96  A    between atoms: _215  and  _216
REMARK   97  A    between atoms: _215  and  _218
REMARK   98  A    between atoms: _218  and  _219
REMARK   99  A    between atoms: _222  and  _224
REMARK  100  A    between atoms: _224  and  _225
REMARK  101  A    between atoms: _224  and  _227
REMARK  102  A    between atoms: _227  and  _228
REMARK  103  A    between atoms: _233  and  _235
REMARK  104  A    between atoms: _235  and  _236
REMARK  105  A    between atoms: _235  and  _238
REMARK  106  A    between atoms: _238  and  _239
REMARK  107  A    between atoms: _244  and  _246
REMARK  108  A    between atoms: _246  and  _247
REMARK  109  A    between atoms: _246  and  _249
REMARK  110  A    between atoms: _249  and  _250
REMARK  111  A    between atoms: _253  and  _255
REMARK  112  A    between atoms: _255  and  _256
REMARK  113  A    between atoms: _258  and  _260
REMARK  114  A    between atoms: _260  and  _261
REMARK  115  A    between atoms: _260  and  _263
REMARK  116  A    between atoms: _263  and  _264
REMARK  117  A    between atoms: _267  and  _269
REMARK  118  A    between atoms: _269  and  _270
REMARK  119  A    between atoms: _269  and  _272
REMARK  120  A    between atoms: _272  and  _273
REMARK  121  A    between atoms: _276  and  _278
REMARK  122  A    between atoms: _278  and  _279
REMARK  123  A    between atoms: _282  and  _284
REMARK  124  A    between atoms: _284  and  _285
REMARK  125  A    between atoms: _284  and  _287
REMARK  126  A    between atoms: _287  and  _288
REMARK  127  A    between atoms: _288  and  _289
REMARK  128  A    between atoms: _289  and  _290
REMARK  129  A    between atoms: _290  and  _291
REMARK  130  A    between atoms: _295  and  _297
REMARK  131  A    between atoms: _297  and  _298
REMARK  132  A    between atoms: _300  and  _302
REMARK  133  A    between atoms: _302  and  _303
REMARK  134  A    between atoms: _302  and  _305
REMARK  135  A    between atoms: _305  and  _306
REMARK  136  A    between atoms: _309  and  _311
REMARK  137  A    between atoms: _311  and  _312
REMARK  138  A    between atoms: _311  and  _314
REMARK  139  A    between atoms: _314  and  _315
REMARK  140  A    between atoms: _321  and  _323
REMARK  141  A    between atoms: _323  and  _324
REMARK  142  A    between atoms: _326  and  _328
REMARK  143  A    between atoms: _328  and  _329
REMARK  144  A    between atoms: _328  and  _331
REMARK  145  A    between atoms: _334  and  _336
REMARK  146  A    between atoms: _336  and  _337
REMARK  147  A    between atoms: _339  and  _341
REMARK  148  A    between atoms: _341  and  _342
REMARK  149  A    between atoms: _341  and  _344
REMARK  150  A    between atoms: _344  and  _345
REMARK  151  A    between atoms: _351  and  _353
REMARK  152  A    between atoms: _353  and  _354
REMARK  153  A    between atoms: _353  and  _356
REMARK  154  A    between atoms: _356  and  _357
REMARK  155  A    between atoms: _362  and  _363
REMARK  156  A    between atoms: _365  and  _367
REMARK  157  A    between atoms: _367  and  _368
REMARK  158  A    between atoms: _367  and  _370
REMARK  159  A    between atoms: _370  and  _371
REMARK  160  A    between atoms: _376  and  _377
REMARK  161  A    between atoms: _379  and  _381
REMARK  162  A    between atoms: _381  and  _382
REMARK  163  A    between atoms: _381  and  _384
REMARK  164  A    between atoms: _387  and  _389
REMARK  165  A    between atoms: _389  and  _390
REMARK  166  A    between atoms: _389  and  _392
REMARK  167  A    between atoms: _392  and  _393
REMARK  168  A    between atoms: _396  and  _398
REMARK  169  A    between atoms: _398  and  _399
REMARK  170  A    between atoms: _398  and  _401
REMARK  171  A    between atoms: _404  and  _406
REMARK  172  A    between atoms: _406  and  _407
REMARK  173  A    between atoms: _406  and  _409
REMARK  174  A    between atoms: _409  and  _410
REMARK  175  A    between atoms: _413  and  _415
REMARK  176  A    between atoms: _415  and  _416
REMARK  177  A    between atoms: _415  and  _418
REMARK  178  A    between atoms: _418  and  _419
REMARK  179  A    between atoms: _422  and  _424
REMARK  180  A    between atoms: _424  and  _425
REMARK  181  A    between atoms: _424  and  _427
REMARK  182  A    between atoms: _427  and  _428
REMARK  183  A    between atoms: _433  and  _435
REMARK  184  A    between atoms: _435  and  _436
REMARK  185  A    between atoms: _435  and  _438
REMARK  186  A    between atoms: _438  and  _439
REMARK  187  A    between atoms: _444  and  _445
REMARK  188  A    between atoms: _447  and  _449
REMARK  189  A    between atoms: _449  and  _450
REMARK  190  A    between atoms: _453  and  _455
REMARK  191  A    between atoms: _455  and  _456
REMARK  192  A    between atoms: _455  and  _458
REMARK  193  A    between atoms: _458  and  _459
REMARK  194  A    between atoms: _469  and  _471
REMARK  195  A    between atoms: _471  and  _472
REMARK  196  A    between atoms: _471  and  _474
REMARK  197  A    between atoms: _474  and  _475
REMARK  198  A    between atoms: _475  and  _476
REMARK  199  A    between atoms: _479  and  _481
REMARK  200  A    between atoms: _481  and  _482
REMARK  201  A    between atoms: _481  and  _484
REMARK  202  A    between atoms: _484  and  _485
REMARK  203  A    between atoms: _487  and  _489
REMARK  204  A    between atoms: _489  and  _490
REMARK  205  A    between atoms: _489  and  _492
REMARK  206  A    between atoms: _492  and  _493
REMARK  207  A    between atoms: _499  and  _501
REMARK  208  A    between atoms: _501  and  _502
REMARK  209  A    between atoms: _501  and  _504
REMARK  210  A    between atoms: _504  and  _505
REMARK  211  A    between atoms: _508  and  _510
REMARK  212  A    between atoms: _510  and  _511
REMARK  213  A    between atoms: _510  and  _513
REMARK  214  A    between atoms: _516  and  _518
REMARK  215  A    between atoms: _518  and  _519
REMARK  216  A    between atoms: _518  and  _521
REMARK  217  A    between atoms: _521  and  _522
REMARK  218  A    between atoms: _525  and  _527
REMARK  219  A    between atoms: _527  and  _528
REMARK  220  A    between atoms: _527  and  _530
REMARK  221  A    between atoms: _530  and  _531
REMARK  222  A    between atoms: _531  and  _532
REMARK  223  A    between atoms: _532  and  _533
REMARK  224  A    between atoms: _533  and  _534
REMARK  225  A    between atoms: _538  and  _540
REMARK  226  A    between atoms: _540  and  _541
REMARK  227  A    between atoms: _540  and  _543
REMARK  228  A    between atoms: _546  and  _548
REMARK  229  A    between atoms: _548  and  _549
REMARK  230  A    between atoms: _548  and  _551
REMARK  231  A    between atoms: _551  and  _552
REMARK                            x       y       z     vdW  Elec       q    Type
REMARK                         _______ _______ _______ _____ _____    ______ ____
ROOT
ATOM      1  O   HOH     1      -0.554  11.566  26.845  0.00  0.00    +0.000 OA
ENDROOT
TORSDOF 0
REMARK  Name = ../refined-set-2016/4cwt/4cwt_pocket.pdb
REMARK  231 active torsions:
REMARK  status: ('A' for Active; 'I' for Inactive)
REMARK    1  A    between atoms: _1  and  _3
REMARK    2  A    between atoms: _3  and  _4
REMARK    3  A    between atoms: _3  and  _6
REMARK    4  A    between atoms: _6  and  _7
REMARK    5  A    between atoms: _13  and  _15
REMARK    6  A    between atoms: _15  and  _16
REMARK    7  A    between atoms: _19  and  _21
REMARK    8  A    between atoms: _21  and  _22
REMARK    9  A    between atoms: _21  and  _24
REMARK   10  A    between atoms: _24  and  _25
REMARK   11  A    between atoms: _31  and  _33
REMARK   12  A    between atoms: _33  and  _34
REMARK   13  A    between atoms: _33  and  _36
REMARK   14  A    between atoms: _36  and  _37
REMARK   15  A    between atoms: _37  and  _38
REMARK   16  A    between atoms: _43  and  _45
REMARK   17  A    between atoms: _45  and  _46
REMARK   18  A    between atoms: _45  and  _48
REMARK   19  A    between atoms: _48  and  _49
REMARK   20  A    between atoms: _52  and  _54
REMARK   21  A    between atoms: _54  and  _55
REMARK   22  A    between atoms: _54  and  _57
REMARK   23  A    between atoms: _57  and  _58
REMARK   24  A    between atoms: _61  and  _63
REMARK   25  A    between atoms: _63  and  _64
REMARK   26  A    between atoms: _63  and  _66
REMARK   27  A    between atoms: _66  and  _67
REMARK   28  A    between atoms: _67  and  _68
REMARK   29  A    between atoms: _70  and  _72
REMARK   30  A    between atoms: _72  and  _73
REMARK   31  A    between atoms: _72  and  _75
REMARK   32  A    between atoms: _75  and  _76
REMARK   33  A    between atoms: _76  and  _77
REMARK   34  A    between atoms: _80  and  _82
REMARK   35  A    between atoms: _82  and  _83
REMARK   36  A    between atoms: _82  and  _85
REMARK   37  A    between atoms: _85  and  _86
REMARK   38  A    between atoms: _89  and  _91
REMARK   39  A    between atoms: _91  and  _92
REMARK   40  A    between atoms: _91  and  _94
REMARK   41  A    between atoms: _94  and  _95
REMARK   42  A    between atoms: _97  and  _99
REMARK   43  A    between atoms: _99  and  _100
REMARK   44  A    between atoms: _99  and  _102
REMARK   45  A    between atoms: _102  and  _103
REMARK   46  A    between atoms: _108  and  _110
REMARK   47  A    between atoms: _110  and  _111
REMARK   48  A    between atoms: _110  and  _113
REMARK   49  A    between atoms: _113  and  _114
REMARK   50  A    between atoms: _116  and  _118
REMARK   51  A    between atoms: _118  and  _119
REMARK   52  A    between atoms: _118  and  _121
REMARK   53  A    between atoms: _121  and  _122
REMARK   54  A    between atoms: _125  and  _127
REMARK   55  A    between atoms: _127  and  _128
REMARK   56  A    between atoms: _131  and  _133
REMARK   57  A    between atoms: _133  and  _134
REMARK   58  A    between atoms: _133  and  _136
REMARK   59  A    between atoms: _136  and  _137
REMARK   60  A    between atoms: _137  and  _138
REMARK   61  A    between atoms: _138  and  _139
REMARK   62  A    between atoms: _139  and  _140
REMARK   63  A    between atoms: _144  and  _146
REMARK   64  A    between atoms: _146  and  _147
REMARK   65  A    between atoms: _146  and  _149
REMARK   66  A    between atoms: _149  and  _150
REMARK   67  A    between atoms: _153  and  _155
REMARK   68  A    between atoms: _155  and  _156
REMARK   69  A    between atoms: _158  and  _160
REMARK   70  A    between atoms: _160  and  _161
REMARK   71  A    between atoms: _160  and  _163
REMARK   72  A    between atoms: _163  and  _164
REMARK   73  A    between atoms: _164  and  _165
REMARK   74  A    between atoms: _167  and  _169
REMARK   75  A    between atoms: _169  and  _170
REMARK   76  A    between atoms: _169  and  _172
REMARK   77  A    between atoms: _172  and  _173
REMARK   78  A    between atoms: _176  and  _178
REMARK   79  A    between atoms: _178  and  _179
REMARK   80  A    between atoms: _178  and  _181
REMARK   81  A    between atoms: _181  and  _182
REMARK   82  A    between atoms: _182  and  _183
REMARK   83  A    between atoms: _183  and  _184
REMARK   84  A    between atoms: _184  and  _185
REMARK   85  A    between atoms: _189  and  _191
REMARK   86  A    between atoms: _191  and  _192
REMARK   87  A    between atoms: _195  and  _197
REMARK   88  A    between atoms: _197  and  _198
REMARK   89  A    between atoms: _197  and  _200
REMARK   90  A    between atoms: _200  and  _201
REMARK   91  A    between atoms: _204  and  _206
REMARK   92  A    between atoms: _206  and  _207
REMARK   93  A    between atoms: _206  and  _209
REMARK   94  A    between atoms: _209  and  _210
REMARK   95  A    between atoms: _213  and  _215
REMARK   96  A    between atoms: _215  and  _216
REMARK   97  A    between atoms: _215  and  _218
REMARK   98  A    between atoms: _218  and  _219
REMARK   99  A    between atoms: _222  and  _224
REMARK  100  A    between atoms: _224  and  _225
REMARK  101  A    between atoms: _224  and  _227
REMARK  102  A    between atoms: _227  and  _228
REMARK  103  A    between atoms: _233  and  _235
REMARK  104  A    between atoms: _235  and  _236
REMARK  105  A    between atoms: _235  and  _238
REMARK  106  A    between atoms: _238  and  _239
REMARK  107  A    between atoms: _244  and  _246
REMARK  108  A    between atoms: _246  and  _247
REMARK  109  A    between atoms: _246  and  _249
REMARK  110  A    between atoms: _249  and  _250
REMARK  111  A    between atoms: _253  and  _255
REMARK  112  A    between atoms: _255  and  _256
REMARK  113  A    between atoms: _258  and  _260
REMARK  114  A    between atoms: _260  and  _261
REMARK  115  A    between atoms: _260  and  _263
REMARK  116  A    between atoms: _263  and  _264
REMARK  117  A    between atoms: _267  and  _269
REMARK  118  A    between atoms: _269  and  _270
REMARK  119  A    between atoms: _269  and  _272
REMARK  120  A    between atoms: _272  and  _273
REMARK  121  A    between atoms: _276  and  _278
REMARK  122  A    between atoms: _278  and  _279
REMARK  123  A    between atoms: _282  and  _284
REMARK  124  A    between atoms: _284  and  _285
REMARK  125  A    between atoms: _284  and  _287
REMARK  126  A    between atoms: _287  and  _288
REMARK  127  A    between atoms: _288  and  _289
REMARK  128  A    between atoms: _289  and  _290
REMARK  129  A    between atoms: _290  and  _291
REMARK  130  A    between atoms: _295  and  _297
REMARK  131  A    between atoms: _297  and  _298
REMARK  132  A    between atoms: _300  and  _302
REMARK  133  A    between atoms: _302  and  _303
REMARK  134  A    between atoms: _302  and  _305
REMARK  135  A    between atoms: _305  and  _306
REMARK  136  A    between atoms: _309  and  _311
REMARK  137  A    between atoms: _311  and  _312
REMARK  138  A    between atoms: _311  and  _314
REMARK  139  A    between atoms: _314  and  _315
REMARK  140  A    between atoms: _321  and  _323
REMARK  141  A    between atoms: _323  and  _324
REMARK  142  A    between atoms: _326  and  _328
REMARK  143  A    between atoms: _328  and  _329
REMARK  144  A    between atoms: _328  and  _331
REMARK  145  A    between atoms: _334  and  _336
REMARK  146  A    between atoms: _336  and  _337
REMARK  147  A    between atoms: _339  and  _341
REMARK  148  A    between atoms: _341  and  _342
REMARK  149  A    between atoms: _341  and  _344
REMARK  150  A    between atoms: _344  and  _345
REMARK  151  A    between atoms: _351  and  _353
REMARK  152  A    between atoms: _353  and  _354
REMARK  153  A    between atoms: _353  and  _356
REMARK  154  A    between atoms: _356  and  _357
REMARK  155  A    between atoms: _362  and  _363
REMARK  156  A    between atoms: _365  and  _367
REMARK  157  A    between atoms: _367  and  _368
REMARK  158  A    between atoms: _367  and  _370
REMARK  159  A    between atoms: _370  and  _371
REMARK  160  A    between atoms: _376  and  _377
REMARK  161  A    between atoms: _379  and  _381
REMARK  162  A    between atoms: _381  and  _382
REMARK  163  A    between atoms: _381  and  _384
REMARK  164  A    between atoms: _387  and  _389
REMARK  165  A    between atoms: _389  and  _390
REMARK  166  A    between atoms: _389  and  _392
REMARK  167  A    between atoms: _392  and  _393
REMARK  168  A    between atoms: _396  and  _398
REMARK  169  A    between atoms: _398  and  _399
REMARK  170  A    between atoms: _398  and  _401
REMARK  171  A    between atoms: _404  and  _406
REMARK  172  A    between atoms: _406  and  _407
REMARK  173  A    between atoms: _406  and  _409
REMARK  174  A    between atoms: _409  and  _410
REMARK  175  A    between atoms: _413  and  _415
REMARK  176  A    between atoms: _415  and  _416
REMARK  177  A    between atoms: _415  and  _418
REMARK  178  A    between atoms: _418  and  _419
REMARK  179  A    between atoms: _422  and  _424
REMARK  180  A    between atoms: _424  and  _425
REMARK  181  A    between atoms: _424  and  _427
REMARK  182  A    between atoms: _427  and  _428
REMARK  183  A    between atoms: _433  and  _435
REMARK  184  A    between atoms: _435  and  _436
REMARK  185  A    between atoms: _435  and  _438
REMARK  186  A    between atoms: _438  and  _439
REMARK  187  A    between atoms: _444  and  _445
REMARK  188  A    between atoms: _447  and  _449
REMARK  189  A    between atoms: _449  and  _450
REMARK  190  A    between atoms: _453  and  _455
REMARK  191  A    between atoms: _455  and  _456
REMARK  192  A    between atoms: _455  and  _458
REMARK  193  A    between atoms: _458  and  _459
REMARK  194  A    between atoms: _469  and  _471
REMARK  195  A    between atoms: _471  and  _472
REMARK  196  A    between atoms: _471  and  _474
REMARK  197  A    between atoms: _474  and  _475
REMARK  198  A    between atoms: _475  and  _476
REMARK  199  A    between atoms: _479  and  _481
REMARK  200  A    between atoms: _481  and  _482
REMARK  201  A    between atoms: _481  and  _484
REMARK  202  A    between atoms: _484  and  _485
REMARK  203  A    between atoms: _487  and  _489
REMARK  204  A    between atoms: _489  and  _490
REMARK  205  A    between atoms: _489  and  _492
REMARK  206  A    between atoms: _492  and  _493
REMARK  207  A    between atoms: _499  and  _501
REMARK  208  A    between atoms: _501  and  _502
REMARK  209  A    between atoms: _501  and  _504
REMARK  210  A    between atoms: _504  and  _505
REMARK  211  A    between atoms: _508  and  _510
REMARK  212  A    between atoms: _510  and  _511
REMARK  213  A    between atoms: _510  and  _513
REMARK  214  A    between atoms: _516  and  _518
REMARK  215  A    between atoms: _518  and  _519
REMARK  216  A    between atoms: _518  and  _521
REMARK  217  A    between atoms: _521  and  _522
REMARK  218  A    between atoms: _525  and  _527
REMARK  219  A    between atoms: _527  and  _528
REMARK  220  A    between atoms: _527  and  _530
REMARK  221  A    between atoms: _530  and  _531
REMARK  222  A    between atoms: _531  and  _532
REMARK  223  A    between atoms: _532  and  _533
REMARK  224  A    between atoms: _533  and  _534
REMARK  225  A    between atoms: _538  and  _540
REMARK  226  A    between atoms: _540  and  _541
REMARK  227  A    between atoms: _540  and  _543
REMARK  228  A    between atoms: _546  and  _548
REMARK  229  A    between atoms: _548  and  _549
REMARK  230  A    between atoms: _548  and  _551
REMARK  231  A    between atoms: _551  and  _552
REMARK                            x       y       z     vdW  Elec       q    Type
REMARK                         _______ _______ _______ _____ _____    ______ ____
ROOT
ATOM      1  O   HOH     1       5.801   8.210  35.947  0.00  0.00    +0.000 OA
ENDROOT
TORSDOF 0
REMARK  Name = ../refined-set-2016/4cwt/4cwt_pocket.pdb
REMARK  231 active torsions:
REMARK  status: ('A' for Active; 'I' for Inactive)
REMARK    1  A    between atoms: _1  and  _3
REMARK    2  A    between atoms: _3  and  _4
REMARK    3  A    between atoms: _3  and  _6
REMARK    4  A    between atoms: _6  and  _7
REMARK    5  A    between atoms: _13  and  _15
REMARK    6  A    between atoms: _15  and  _16
REMARK    7  A    between atoms: _19  and  _21
REMARK    8  A    between atoms: _21  and  _22
REMARK    9  A    between atoms: _21  and  _24
REMARK   10  A    between atoms: _24  and  _25
REMARK   11  A    between atoms: _31  and  _33
REMARK   12  A    between atoms: _33  and  _34
REMARK   13  A    between atoms: _33  and  _36
REMARK   14  A    between atoms: _36  and  _37
REMARK   15  A    between atoms: _37  and  _38
REMARK   16  A    between atoms: _43  and  _45
REMARK   17  A    between atoms: _45  and  _46
REMARK   18  A    between atoms: _45  and  _48
REMARK   19  A    between atoms: _48  and  _49
REMARK   20  A    between atoms: _52  and  _54
REMARK   21  A    between atoms: _54  and  _55
REMARK   22  A    between atoms: _54  and  _57
REMARK   23  A    between atoms: _57  and  _58
REMARK   24  A    between atoms: _61  and  _63
REMARK   25  A    between atoms: _63  and  _64
REMARK   26  A    between atoms: _63  and  _66
REMARK   27  A    between atoms: _66  and  _67
REMARK   28  A    between atoms: _67  and  _68
REMARK   29  A    between atoms: _70  and  _72
REMARK   30  A    between atoms: _72  and  _73
REMARK   31  A    between atoms: _72  and  _75
REMARK   32  A    between atoms: _75  and  _76
REMARK   33  A    between atoms: _76  and  _77
REMARK   34  A    between atoms: _80  and  _82
REMARK   35  A    between atoms: _82  and  _83
REMARK   36  A    between atoms: _82  and  _85
REMARK   37  A    between atoms: _85  and  _86
REMARK   38  A    between atoms: _89  and  _91
REMARK   39  A    between atoms: _91  and  _92
REMARK   40  A    between atoms: _91  and  _94
REMARK   41  A    between atoms: _94  and  _95
REMARK   42  A    between atoms: _97  and  _99
REMARK   43  A    between atoms: _99  and  _100
REMARK   44  A    between atoms: _99  and  _102
REMARK   45  A    between atoms: _102  and  _103
REMARK   46  A    between atoms: _108  and  _110
REMARK   47  A    between atoms: _110  and  _111
REMARK   48  A    between atoms: _110  and  _113
REMARK   49  A    between atoms: _113  and  _114
REMARK   50  A    between atoms: _116  and  _118
REMARK   51  A    between atoms: _118  and  _119
REMARK   52  A    between atoms: _118  and  _121
REMARK   53  A    between atoms: _121  and  _122
REMARK   54  A    between atoms: _125  and  _127
REMARK   55  A    between atoms: _127  and  _128
REMARK   56  A    between atoms: _131  and  _133
REMARK   57  A    between atoms: _133  and  _134
REMARK   58  A    between atoms: _133  and  _136
REMARK   59  A    between atoms: _136  and  _137
REMARK   60  A    between atoms: _137  and  _138
REMARK   61  A    between atoms: _138  and  _139
REMARK   62  A    between atoms: _139  and  _140
REMARK   63  A    between atoms: _144  and  _146
REMARK   64  A    between atoms: _146  and  _147
REMARK   65  A    between atoms: _146  and  _149
REMARK   66  A    between atoms: _149  and  _150
REMARK   67  A    between atoms: _153  and  _155
REMARK   68  A    between atoms: _155  and  _156
REMARK   69  A    between atoms: _158  and  _160
REMARK   70  A    between atoms: _160  and  _161
REMARK   71  A    between atoms: _160  and  _163
REMARK   72  A    between atoms: _163  and  _164
REMARK   73  A    between atoms: _164  and  _165
REMARK   74  A    between atoms: _167  and  _169
REMARK   75  A    between atoms: _169  and  _170
REMARK   76  A    between atoms: _169  and  _172
REMARK   77  A    between atoms: _172  and  _173
REMARK   78  A    between atoms: _176  and  _178
REMARK   79  A    between atoms: _178  and  _179
REMARK   80  A    between atoms: _178  and  _181
REMARK   81  A    between atoms: _181  and  _182
REMARK   82  A    between atoms: _182  and  _183
REMARK   83  A    between atoms: _183  and  _184
REMARK   84  A    between atoms: _184  and  _185
REMARK   85  A    between atoms: _189  and  _191
REMARK   86  A    between atoms: _191  and  _192
REMARK   87  A    between atoms: _195  and  _197
REMARK   88  A    between atoms: _197  and  _198
REMARK   89  A    between atoms: _197  and  _200
REMARK   90  A    between atoms: _200  and  _201
REMARK   91  A    between atoms: _204  and  _206
REMARK   92  A    between atoms: _206  and  _207
REMARK   93  A    between atoms: _206  and  _209
REMARK   94  A    between atoms: _209  and  _210
REMARK   95  A    between atoms: _213  and  _215
REMARK   96  A    between atoms: _215  and  _216
REMARK   97  A    between atoms: _215  and  _218
REMARK   98  A    between atoms: _218  and  _219
REMARK   99  A    between atoms: _222  and  _224
REMARK  100  A    between atoms: _224  and  _225
REMARK  101  A    between atoms: _224  and  _227
REMARK  102  A    between atoms: _227  and  _228
REMARK  103  A    between atoms: _233  and  _235
REMARK  104  A    between atoms: _235  and  _236
REMARK  105  A    between atoms: _235  and  _238
REMARK  106  A    between atoms: _238  and  _239
REMARK  107  A    between atoms: _244  and  _246
REMARK  108  A    between atoms: _246  and  _247
REMARK  109  A    between atoms: _246  and  _249
REMARK  110  A    between atoms: _249  and  _250
REMARK  111  A    between atoms: _253  and  _255
REMARK  112  A    between atoms: _255  and  _256
REMARK  113  A    between atoms: _258  and  _260
REMARK  114  A    between atoms: _260  and  _261
REMARK  115  A    between atoms: _260  and  _263
REMARK  116  A    between atoms: _263  and  _264
REMARK  117  A    between atoms: _267  and  _269
REMARK  118  A    between atoms: _269  and  _270
REMARK  119  A    between atoms: _269  and  _272
REMARK  120  A    between atoms: _272  and  _273
REMARK  121  A    between atoms: _276  and  _278
REMARK  122  A    between atoms: _278  and  _279
REMARK  123  A    between atoms: _282  and  _284
REMARK  124  A    between atoms: _284  and  _285
REMARK  125  A    between atoms: _284  and  _287
REMARK  126  A    between atoms: _287  and  _288
REMARK  127  A    between atoms: _288  and  _289
REMARK  128  A    between atoms: _289  and  _290
REMARK  129  A    between atoms: _290  and  _291
REMARK  130  A    between atoms: _295  and  _297
REMARK  131  A    between atoms: _297  and  _298
REMARK  132  A    between atoms: _300  and  _302
REMARK  133  A    between atoms: _302  and  _303
REMARK  134  A    between atoms: _302  and  _305
REMARK  135  A    between atoms: _305  and  _306
REMARK  136  A    between atoms: _309  and  _311
REMARK  137  A    between atoms: _311  and  _312
REMARK  138  A    between atoms: _311  and  _314
REMARK  139  A    between atoms: _314  and  _315
REMARK  140  A    between atoms: _321  and  _323
REMARK  141  A    between atoms: _323  and  _324
REMARK  142  A    between atoms: _326  and  _328
REMARK  143  A    between atoms: _328  and  _329
REMARK  144  A    between atoms: _328  and  _331
REMARK  145  A    between atoms: _334  and  _336
REMARK  146  A    between atoms: _336  and  _337
REMARK  147  A    between atoms: _339  and  _341
REMARK  148  A    between atoms: _341  and  _342
REMARK  149  A    between atoms: _341  and  _344
REMARK  150  A    between atoms: _344  and  _345
REMARK  151  A    between atoms: _351  and  _353
REMARK  152  A    between atoms: _353  and  _354
REMARK  153  A    between atoms: _353  and  _356
REMARK  154  A    between atoms: _356  and  _357
REMARK  155  A    between atoms: _362  and  _363
REMARK  156  A    between atoms: _365  and  _367
REMARK  157  A    between atoms: _367  and  _368
REMARK  158  A    between atoms: _367  and  _370
REMARK  159  A    between atoms: _370  and  _371
REMARK  160  A    between atoms: _376  and  _377
REMARK  161  A    between atoms: _379  and  _381
REMARK  162  A    between atoms: _381  and  _382
REMARK  163  A    between atoms: _381  and  _384
REMARK  164  A    between atoms: _387  and  _389
REMARK  165  A    between atoms: _389  and  _390
REMARK  166  A    between atoms: _389  and  _392
REMARK  167  A    between atoms: _392  and  _393
REMARK  168  A    between atoms: _396  and  _398
REMARK  169  A    between atoms: _398  and  _399
REMARK  170  A    between atoms: _398  and  _401
REMARK  171  A    between atoms: _404  and  _406
REMARK  172  A    between atoms: _406  and  _407
REMARK  173  A    between atoms: _406  and  _409
REMARK  174  A    between atoms: _409  and  _410
REMARK  175  A    between atoms: _413  and  _415
REMARK  176  A    between atoms: _415  and  _416
REMARK  177  A    between atoms: _415  and  _418
REMARK  178  A    between atoms: _418  and  _419
REMARK  179  A    between atoms: _422  and  _424
REMARK  180  A    between atoms: _424  and  _425
REMARK  181  A    between atoms: _424  and  _427
REMARK  182  A    between atoms: _427  and  _428
REMARK  183  A    between atoms: _433  and  _435
REMARK  184  A    between atoms: _435  and  _436
REMARK  185  A    between atoms: _435  and  _438
REMARK  186  A    between atoms: _438  and  _439
REMARK  187  A    between atoms: _444  and  _445
REMARK  188  A    between atoms: _447  and  _449
REMARK  189  A    between atoms: _449  and  _450
REMARK  190  A    between atoms: _453  and  _455
REMARK  191  A    between atoms: _455  and  _456
REMARK  192  A    between atoms: _455  and  _458
REMARK  193  A    between atoms: _458  and  _459
REMARK  194  A    between atoms: _469  and  _471
REMARK  195  A    between atoms: _471  and  _472
REMARK  196  A    between atoms: _471  and  _474
REMARK  197  A    between atoms: _474  and  _475
REMARK  198  A    between atoms: _475  and  _476
REMARK  199  A    between atoms: _479  and  _481
REMARK  200  A    between atoms: _481  and  _482
REMARK  201  A    between atoms: _481  and  _484
REMARK  202  A    between atoms: _484  and  _485
REMARK  203  A    between atoms: _487  and  _489
REMARK  204  A    between atoms: _489  and  _490
REMARK  205  A    between atoms: _489  and  _492
REMARK  206  A    between atoms: _492  and  _493
REMARK  207  A    between atoms: _499  and  _501
REMARK  208  A    between atoms: _501  and  _502
REMARK  209  A    between atoms: _501  and  _504
REMARK  210  A    between atoms: _504  and  _505
REMARK  211  A    between atoms: _508  and  _510
REMARK  212  A    between atoms: _510  and  _511
REMARK  213  A    between atoms: _510  and  _513
REMARK  214  A    between atoms: _516  and  _518
REMARK  215  A    between atoms: _518  and  _519
REMARK  216  A    between atoms: _518  and  _521
REMARK  217  A    between atoms: _521  and  _522
REMARK  218  A    between atoms: _525  and  _527
REMARK  219  A    between atoms: _527  and  _528
REMARK  220  A    between atoms: _527  and  _530
REMARK  221  A    between atoms: _530  and  _531
REMARK  222  A    between atoms: _531  and  _532
REMARK  223  A    between atoms: _532  and  _533
REMARK  224  A    between atoms: _533  and  _534
REMARK  225  A    between atoms: _538  and  _540
REMARK  226  A    between atoms: _540  and  _541
REMARK  227  A    between atoms: _540  and  _543
REMARK  228  A    between atoms: _546  and  _548
REMARK  229  A    between atoms: _548  and  _549
REMARK  230  A    between atoms: _548  and  _551
REMARK  231  A    between atoms: _551  and  _552
REMARK                            x       y       z     vdW  Elec       q    Type
REMARK                         _______ _______ _______ _____ _____    ______ ____
ROOT
ATOM      1  O   HOH     1      10.867  12.676  29.471  0.00  0.00    +0.000 OA
ENDROOT
TORSDOF 0
REMARK  Name = ../refined-set-2016/4cwt/4cwt_pocket.pdb
REMARK  231 active torsions:
REMARK  status: ('A' for Active; 'I' for Inactive)
REMARK    1  A    between atoms: _1  and  _3
REMARK    2  A    between atoms: _3  and  _4
REMARK    3  A    between atoms: _3  and  _6
REMARK    4  A    between atoms: _6  and  _7
REMARK    5  A    between atoms: _13  and  _15
REMARK    6  A    between atoms: _15  and  _16
REMARK    7  A    between atoms: _19  and  _21
REMARK    8  A    between atoms: _21  and  _22
REMARK    9  A    between atoms: _21  and  _24
REMARK   10  A    between atoms: _24  and  _25
REMARK   11  A    between atoms: _31  and  _33
REMARK   12  A    between atoms: _33  and  _34
REMARK   13  A    between atoms: _33  and  _36
REMARK   14  A    between atoms: _36  and  _37
REMARK   15  A    between atoms: _37  and  _38
REMARK   16  A    between atoms: _43  and  _45
REMARK   17  A    between atoms: _45  and  _46
REMARK   18  A    between atoms: _45  and  _48
REMARK   19  A    between atoms: _48  and  _49
REMARK   20  A    between atoms: _52  and  _54
REMARK   21  A    between atoms: _54  and  _55
REMARK   22  A    between atoms: _54  and  _57
REMARK   23  A    between atoms: _57  and  _58
REMARK   24  A    between atoms: _61  and  _63
REMARK   25  A    between atoms: _63  and  _64
REMARK   26  A    between atoms: _63  and  _66
REMARK   27  A    between atoms: _66  and  _67
REMARK   28  A    between atoms: _67  and  _68
REMARK   29  A    between atoms: _70  and  _72
REMARK   30  A    between atoms: _72  and  _73
REMARK   31  A    between atoms: _72  and  _75
REMARK   32  A    between atoms: _75  and  _76
REMARK   33  A    between atoms: _76  and  _77
REMARK   34  A    between atoms: _80  and  _82
REMARK   35  A    between atoms: _82  and  _83
REMARK   36  A    between atoms: _82  and  _85
REMARK   37  A    between atoms: _85  and  _86
REMARK   38  A    between atoms: _89  and  _91
REMARK   39  A    between atoms: _91  and  _92
REMARK   40  A    between atoms: _91  and  _94
REMARK   41  A    between atoms: _94  and  _95
REMARK   42  A    between atoms: _97  and  _99
REMARK   43  A    between atoms: _99  and  _100
REMARK   44  A    between atoms: _99  and  _102
REMARK   45  A    between atoms: _102  and  _103
REMARK   46  A    between atoms: _108  and  _110
REMARK   47  A    between atoms: _110  and  _111
REMARK   48  A    between atoms: _110  and  _113
REMARK   49  A    between atoms: _113  and  _114
REMARK   50  A    between atoms: _116  and  _118
REMARK   51  A    between atoms: _118  and  _119
REMARK   52  A    between atoms: _118  and  _121
REMARK   53  A    between atoms: _121  and  _122
REMARK   54  A    between atoms: _125  and  _127
REMARK   55  A    between atoms: _127  and  _128
REMARK   56  A    between atoms: _131  and  _133
REMARK   57  A    between atoms: _133  and  _134
REMARK   58  A    between atoms: _133  and  _136
REMARK   59  A    between atoms: _136  and  _137
REMARK   60  A    between atoms: _137  and  _138
REMARK   61  A    between atoms: _138  and  _139
REMARK   62  A    between atoms: _139  and  _140
REMARK   63  A    between atoms: _144  and  _146
REMARK   64  A    between atoms: _146  and  _147
REMARK   65  A    between atoms: _146  and  _149
REMARK   66  A    between atoms: _149  and  _150
REMARK   67  A    between atoms: _153  and  _155
REMARK   68  A    between atoms: _155  and  _156
REMARK   69  A    between atoms: _158  and  _160
REMARK   70  A    between atoms: _160  and  _161
REMARK   71  A    between atoms: _160  and  _163
REMARK   72  A    between atoms: _163  and  _164
REMARK   73  A    between atoms: _164  and  _165
REMARK   74  A    between atoms: _167  and  _169
REMARK   75  A    between atoms: _169  and  _170
REMARK   76  A    between atoms: _169  and  _172
REMARK   77  A    between atoms: _172  and  _173
REMARK   78  A    between atoms: _176  and  _178
REMARK   79  A    between atoms: _178  and  _179
REMARK   80  A    between atoms: _178  and  _181
REMARK   81  A    between atoms: _181  and  _182
REMARK   82  A    between atoms: _182  and  _183
REMARK   83  A    between atoms: _183  and  _184
REMARK   84  A    between atoms: _184  and  _185
REMARK   85  A    between atoms: _189  and  _191
REMARK   86  A    between atoms: _191  and  _192
REMARK   87  A    between atoms: _195  and  _197
REMARK   88  A    between atoms: _197  and  _198
REMARK   89  A    between atoms: _197  and  _200
REMARK   90  A    between atoms: _200  and  _201
REMARK   91  A    between atoms: _204  and  _206
REMARK   92  A    between atoms: _206  and  _207
REMARK   93  A    between atoms: _206  and  _209
REMARK   94  A    between atoms: _209  and  _210
REMARK   95  A    between atoms: _213  and  _215
REMARK   96  A    between atoms: _215  and  _216
REMARK   97  A    between atoms: _215  and  _218
REMARK   98  A    between atoms: _218  and  _219
REMARK   99  A    between atoms: _222  and  _224
REMARK  100  A    between atoms: _224  and  _225
REMARK  101  A    between atoms: _224  and  _227
REMARK  102  A    between atoms: _227  and  _228
REMARK  103  A    between atoms: _233  and  _235
REMARK  104  A    between atoms: _235  and  _236
REMARK  105  A    between atoms: _235  and  _238
REMARK  106  A    between atoms: _238  and  _239
REMARK  107  A    between atoms: _244  and  _246
REMARK  108  A    between atoms: _246  and  _247
REMARK  109  A    between atoms: _246  and  _249
REMARK  110  A    between atoms: _249  and  _250
REMARK  111  A    between atoms: _253  and  _255
REMARK  112  A    between atoms: _255  and  _256
REMARK  113  A    between atoms: _258  and  _260
REMARK  114  A    between atoms: _260  and  _261
REMARK  115  A    between atoms: _260  and  _263
REMARK  116  A    between atoms: _263  and  _264
REMARK  117  A    between atoms: _267  and  _269
REMARK  118  A    between atoms: _269  and  _270
REMARK  119  A    between atoms: _269  and  _272
REMARK  120  A    between atoms: _272  and  _273
REMARK  121  A    between atoms: _276  and  _278
REMARK  122  A    between atoms: _278  and  _279
REMARK  123  A    between atoms: _282  and  _284
REMARK  124  A    between atoms: _284  and  _285
REMARK  125  A    between atoms: _284  and  _287
REMARK  126  A    between atoms: _287  and  _288
REMARK  127  A    between atoms: _288  and  _289
REMARK  128  A    between atoms: _289  and  _290
REMARK  129  A    between atoms: _290  and  _291
REMARK  130  A    between atoms: _295  and  _297
REMARK  131  A    between atoms: _297  and  _298
REMARK  132  A    between atoms: _300  and  _302
REMARK  133  A    between atoms: _302  and  _303
REMARK  134  A    between atoms: _302  and  _305
REMARK  135  A    between atoms: _305  and  _306
REMARK  136  A    between atoms: _309  and  _311
REMARK  137  A    between atoms: _311  and  _312
REMARK  138  A    between atoms: _311  and  _314
REMARK  139  A    between atoms: _314  and  _315
REMARK  140  A    between atoms: _321  and  _323
REMARK  141  A    between atoms: _323  and  _324
REMARK  142  A    between atoms: _326  and  _328
REMARK  143  A    between atoms: _328  and  _329
REMARK  144  A    between atoms: _328  and  _331
REMARK  145  A    between atoms: _334  and  _336
REMARK  146  A    between atoms: _336  and  _337
REMARK  147  A    between atoms: _339  and  _341
REMARK  148  A    between atoms: _341  and  _342
REMARK  149  A    between atoms: _341  and  _344
REMARK  150  A    between atoms: _344  and  _345
REMARK  151  A    between atoms: _351  and  _353
REMARK  152  A    between atoms: _353  and  _354
REMARK  153  A    between atoms: _353  and  _356
REMARK  154  A    between atoms: _356  and  _357
REMARK  155  A    between atoms: _362  and  _363
REMARK  156  A    between atoms: _365  and  _367
REMARK  157  A    between atoms: _367  and  _368
REMARK  158  A    between atoms: _367  and  _370
REMARK  159  A    between atoms: _370  and  _371
REMARK  160  A    between atoms: _376  and  _377
REMARK  161  A    between atoms: _379  and  _381
REMARK  162  A    between atoms: _381  and  _382
REMARK  163  A    between atoms: _381  and  _384
REMARK  164  A    between atoms: _387  and  _389
REMARK  165  A    between atoms: _389  and  _390
REMARK  166  A    between atoms: _389  and  _392
REMARK  167  A    between atoms: _392  and  _393
REMARK  168  A    between atoms: _396  and  _398
REMARK  169  A    between atoms: _398  and  _399
REMARK  170  A    between atoms: _398  and  _401
REMARK  171  A    between atoms: _404  and  _406
REMARK  172  A    between atoms: _406  and  _407
REMARK  173  A    between atoms: _406  and  _409
REMARK  174  A    between atoms: _409  and  _410
REMARK  175  A    between atoms: _413  and  _415
REMARK  176  A    between atoms: _415  and  _416
REMARK  177  A    between atoms: _415  and  _418
REMARK  178  A    between atoms: _418  and  _419
REMARK  179  A    between atoms: _422  and  _424
REMARK  180  A    between atoms: _424  and  _425
REMARK  181  A    between atoms: _424  and  _427
REMARK  182  A    between atoms: _427  and  _428
REMARK  183  A    between atoms: _433  and  _435
REMARK  184  A    between atoms: _435  and  _436
REMARK  185  A    between atoms: _435  and  _438
REMARK  186  A    between atoms: _438  and  _439
REMARK  187  A    between atoms: _444  and  _445
REMARK  188  A    between atoms: _447  and  _449
REMARK  189  A    between atoms: _449  and  _450
REMARK  190  A    between atoms: _453  and  _455
REMARK  191  A    between atoms: _455  and  _456
REMARK  192  A    between atoms: _455  and  _458
REMARK  193  A    between atoms: _458  and  _459
REMARK  194  A    between atoms: _469  and  _471
REMARK  195  A    between atoms: _471  and  _472
REMARK  196  A    between atoms: _471  and  _474
REMARK  197  A    between atoms: _474  and  _475
REMARK  198  A    between atoms: _475  and  _476
REMARK  199  A    between atoms: _479  and  _481
REMARK  200  A    between atoms: _481  and  _482
REMARK  201  A    between atoms: _481  and  _484
REMARK  202  A    between atoms: _484  and  _485
REMARK  203  A    between atoms: _487  and  _489
REMARK  204  A    between atoms: _489  and  _490
REMARK  205  A    between atoms: _489  and  _492
REMARK  206  A    between atoms: _492  and  _493
REMARK  207  A    between atoms: _499  and  _501
REMARK  208  A    between atoms: _501  and  _502
REMARK  209  A    between atoms: _501  and  _504
REMARK  210  A    between atoms: _504  and  _505
REMARK  211  A    between atoms: _508  and  _510
REMARK  212  A    between atoms: _510  and  _511
REMARK  213  A    between atoms: _510  and  _513
REMARK  214  A    between atoms: _516  and  _518
REMARK  215  A    between atoms: _518  and  _519
REMARK  216  A    between atoms: _518  and  _521
REMARK  217  A    between atoms: _521  and  _522
REMARK  218  A    between atoms: _525  and  _527
REMARK  219  A    between atoms: _527  and  _528
REMARK  220  A    between atoms: _527  and  _530
REMARK  221  A    between atoms: _530  and  _531
REMARK  222  A    between atoms: _531  and  _532
REMARK  223  A    between atoms: _532  and  _533
REMARK  224  A    between atoms: _533  and  _534
REMARK  225  A    between atoms: _538  and  _540
REMARK  226  A    between atoms: _540  and  _541
REMARK  227  A    between atoms: _540  and  _543
REMARK  228  A    between atoms: _546  and  _548
REMARK  229  A    between atoms: _548  and  _549
REMARK  230  A    between atoms: _548  and  _551
REMARK  231  A    between atoms: _551  and  _552
REMARK                            x       y       z     vdW  Elec       q    Type
REMARK                         _______ _______ _______ _____ _____    ______ ____
ROOT
ATOM      1  O   HOH     1      10.658  12.653  24.712  0.00  0.00    +0.000 OA
ENDROOT
TORSDOF 0
REMARK  Name = ../refined-set-2016/4cwt/4cwt_pocket.pdb
REMARK  231 active torsions:
REMARK  status: ('A' for Active; 'I' for Inactive)
REMARK    1  A    between atoms: _1  and  _3
REMARK    2  A    between atoms: _3  and  _4
REMARK    3  A    between atoms: _3  and  _6
REMARK    4  A    between atoms: _6  and  _7
REMARK    5  A    between atoms: _13  and  _15
REMARK    6  A    between atoms: _15  and  _16
REMARK    7  A    between atoms: _19  and  _21
REMARK    8  A    between atoms: _21  and  _22
REMARK    9  A    between atoms: _21  and  _24
REMARK   10  A    between atoms: _24  and  _25
REMARK   11  A    between atoms: _31  and  _33
REMARK   12  A    between atoms: _33  and  _34
REMARK   13  A    between atoms: _33  and  _36
REMARK   14  A    between atoms: _36  and  _37
REMARK   15  A    between atoms: _37  and  _38
REMARK   16  A    between atoms: _43  and  _45
REMARK   17  A    between atoms: _45  and  _46
REMARK   18  A    between atoms: _45  and  _48
REMARK   19  A    between atoms: _48  and  _49
REMARK   20  A    between atoms: _52  and  _54
REMARK   21  A    between atoms: _54  and  _55
REMARK   22  A    between atoms: _54  and  _57
REMARK   23  A    between atoms: _57  and  _58
REMARK   24  A    between atoms: _61  and  _63
REMARK   25  A    between atoms: _63  and  _64
REMARK   26  A    between atoms: _63  and  _66
REMARK   27  A    between atoms: _66  and  _67
REMARK   28  A    between atoms: _67  and  _68
REMARK   29  A    between atoms: _70  and  _72
REMARK   30  A    between atoms: _72  and  _73
REMARK   31  A    between atoms: _72  and  _75
REMARK   32  A    between atoms: _75  and  _76
REMARK   33  A    between atoms: _76  and  _77
REMARK   34  A    between atoms: _80  and  _82
REMARK   35  A    between atoms: _82  and  _83
REMARK   36  A    between atoms: _82  and  _85
REMARK   37  A    between atoms: _85  and  _86
REMARK   38  A    between atoms: _89  and  _91
REMARK   39  A    between atoms: _91  and  _92
REMARK   40  A    between atoms: _91  and  _94
REMARK   41  A    between atoms: _94  and  _95
REMARK   42  A    between atoms: _97  and  _99
REMARK   43  A    between atoms: _99  and  _100
REMARK   44  A    between atoms: _99  and  _102
REMARK   45  A    between atoms: _102  and  _103
REMARK   46  A    between atoms: _108  and  _110
REMARK   47  A    between atoms: _110  and  _111
REMARK   48  A    between atoms: _110  and  _113
REMARK   49  A    between atoms: _113  and  _114
REMARK   50  A    between atoms: _116  and  _118
REMARK   51  A    between atoms: _118  and  _119
REMARK   52  A    between atoms: _118  and  _121
REMARK   53  A    between atoms: _121  and  _122
REMARK   54  A    between atoms: _125  and  _127
REMARK   55  A    between atoms: _127  and  _128
REMARK   56  A    between atoms: _131  and  _133
REMARK   57  A    between atoms: _133  and  _134
REMARK   58  A    between atoms: _133  and  _136
REMARK   59  A    between atoms: _136  and  _137
REMARK   60  A    between atoms: _137  and  _138
REMARK   61  A    between atoms: _138  and  _139
REMARK   62  A    between atoms: _139  and  _140
REMARK   63  A    between atoms: _144  and  _146
REMARK   64  A    between atoms: _146  and  _147
REMARK   65  A    between atoms: _146  and  _149
REMARK   66  A    between atoms: _149  and  _150
REMARK   67  A    between atoms: _153  and  _155
REMARK   68  A    between atoms: _155  and  _156
REMARK   69  A    between atoms: _158  and  _160
REMARK   70  A    between atoms: _160  and  _161
REMARK   71  A    between atoms: _160  and  _163
REMARK   72  A    between atoms: _163  and  _164
REMARK   73  A    between atoms: _164  and  _165
REMARK   74  A    between atoms: _167  and  _169
REMARK   75  A    between atoms: _169  and  _170
REMARK   76  A    between atoms: _169  and  _172
REMARK   77  A    between atoms: _172  and  _173
REMARK   78  A    between atoms: _176  and  _178
REMARK   79  A    between atoms: _178  and  _179
REMARK   80  A    between atoms: _178  and  _181
REMARK   81  A    between atoms: _181  and  _182
REMARK   82  A    between atoms: _182  and  _183
REMARK   83  A    between atoms: _183  and  _184
REMARK   84  A    between atoms: _184  and  _185
REMARK   85  A    between atoms: _189  and  _191
REMARK   86  A    between atoms: _191  and  _192
REMARK   87  A    between atoms: _195  and  _197
REMARK   88  A    between atoms: _197  and  _198
REMARK   89  A    between atoms: _197  and  _200
REMARK   90  A    between atoms: _200  and  _201
REMARK   91  A    between atoms: _204  and  _206
REMARK   92  A    between atoms: _206  and  _207
REMARK   93  A    between atoms: _206  and  _209
REMARK   94  A    between atoms: _209  and  _210
REMARK   95  A    between atoms: _213  and  _215
REMARK   96  A    between atoms: _215  and  _216
REMARK   97  A    between atoms: _215  and  _218
REMARK   98  A    between atoms: _218  and  _219
REMARK   99  A    between atoms: _222  and  _224
REMARK  100  A    between atoms: _224  and  _225
REMARK  101  A    between atoms: _224  and  _227
REMARK  102  A    between atoms: _227  and  _228
REMARK  103  A    between atoms: _233  and  _235
REMARK  104  A    between atoms: _235  and  _236
REMARK  105  A    between atoms: _235  and  _238
REMARK  106  A    between atoms: _238  and  _239
REMARK  107  A    between atoms: _244  and  _246
REMARK  108  A    between atoms: _246  and  _247
REMARK  109  A    between atoms: _246  and  _249
REMARK  110  A    between atoms: _249  and  _250
REMARK  111  A    between atoms: _253  and  _255
REMARK  112  A    between atoms: _255  and  _256
REMARK  113  A    between atoms: _258  and  _260
REMARK  114  A    between atoms: _260  and  _261
REMARK  115  A    between atoms: _260  and  _263
REMARK  116  A    between atoms: _263  and  _264
REMARK  117  A    between atoms: _267  and  _269
REMARK  118  A    between atoms: _269  and  _270
REMARK  119  A    between atoms: _269  and  _272
REMARK  120  A    between atoms: _272  and  _273
REMARK  121  A    between atoms: _276  and  _278
REMARK  122  A    between atoms: _278  and  _279
REMARK  123  A    between atoms: _282  and  _284
REMARK  124  A    between atoms: _284  and  _285
REMARK  125  A    between atoms: _284  and  _287
REMARK  126  A    between atoms: _287  and  _288
REMARK  127  A    between atoms: _288  and  _289
REMARK  128  A    between atoms: _289  and  _290
REMARK  129  A    between atoms: _290  and  _291
REMARK  130  A    between atoms: _295  and  _297
REMARK  131  A    between atoms: _297  and  _298
REMARK  132  A    between atoms: _300  and  _302
REMARK  133  A    between atoms: _302  and  _303
REMARK  134  A    between atoms: _302  and  _305
REMARK  135  A    between atoms: _305  and  _306
REMARK  136  A    between atoms: _309  and  _311
REMARK  137  A    between atoms: _311  and  _312
REMARK  138  A    between atoms: _311  and  _314
REMARK  139  A    between atoms: _314  and  _315
REMARK  140  A    between atoms: _321  and  _323
REMARK  141  A    between atoms: _323  and  _324
REMARK  142  A    between atoms: _326  and  _328
REMARK  143  A    between atoms: _328  and  _329
REMARK  144  A    between atoms: _328  and  _331
REMARK  145  A    between atoms: _334  and  _336
REMARK  146  A    between atoms: _336  and  _337
REMARK  147  A    between atoms: _339  and  _341
REMARK  148  A    between atoms: _341  and  _342
REMARK  149  A    between atoms: _341  and  _344
REMARK  150  A    between atoms: _344  and  _345
REMARK  151  A    between atoms: _351  and  _353
REMARK  152  A    between atoms: _353  and  _354
REMARK  153  A    between atoms: _353  and  _356
REMARK  154  A    between atoms: _356  and  _357
REMARK  155  A    between atoms: _362  and  _363
REMARK  156  A    between atoms: _365  and  _367
REMARK  157  A    between atoms: _367  and  _368
REMARK  158  A    between atoms: _367  and  _370
REMARK  159  A    between atoms: _370  and  _371
REMARK  160  A    between atoms: _376  and  _377
REMARK  161  A    between atoms: _379  and  _381
REMARK  162  A    between atoms: _381  and  _382
REMARK  163  A    between atoms: _381  and  _384
REMARK  164  A    between atoms: _387  and  _389
REMARK  165  A    between atoms: _389  and  _390
REMARK  166  A    between atoms: _389  and  _392
REMARK  167  A    between atoms: _392  and  _393
REMARK  168  A    between atoms: _396  and  _398
REMARK  169  A    between atoms: _398  and  _399
REMARK  170  A    between atoms: _398  and  _401
REMARK  171  A    between atoms: _404  and  _406
REMARK  172  A    between atoms: _406  and  _407
REMARK  173  A    between atoms: _406  and  _409
REMARK  174  A    between atoms: _409  and  _410
REMARK  175  A    between atoms: _413  and  _415
REMARK  176  A    between atoms: _415  and  _416
REMARK  177  A    between atoms: _415  and  _418
REMARK  178  A    between atoms: _418  and  _419
REMARK  179  A    between atoms: _422  and  _424
REMARK  180  A    between atoms: _424  and  _425
REMARK  181  A    between atoms: _424  and  _427
REMARK  182  A    between atoms: _427  and  _428
REMARK  183  A    between atoms: _433  and  _435
REMARK  184  A    between atoms: _435  and  _436
REMARK  185  A    between atoms: _435  and  _438
REMARK  186  A    between atoms: _438  and  _439
REMARK  187  A    between atoms: _444  and  _445
REMARK  188  A    between atoms: _447  and  _449
REMARK  189  A    between atoms: _449  and  _450
REMARK  190  A    between atoms: _453  and  _455
REMARK  191  A    between atoms: _455  and  _456
REMARK  192  A    between atoms: _455  and  _458
REMARK  193  A    between atoms: _458  and  _459
REMARK  194  A    between atoms: _469  and  _471
REMARK  195  A    between atoms: _471  and  _472
REMARK  196  A    between atoms: _471  and  _474
REMARK  197  A    between atoms: _474  and  _475
REMARK  198  A    between atoms: _475  and  _476
REMARK  199  A    between atoms: _479  and  _481
REMARK  200  A    between atoms: _481  and  _482
REMARK  201  A    between atoms: _481  and  _484
REMARK  202  A    between atoms: _484  and  _485
REMARK  203  A    between atoms: _487  and  _489
REMARK  204  A    between atoms: _489  and  _490
REMARK  205  A    between atoms: _489  and  _492
REMARK  206  A    between atoms: _492  and  _493
REMARK  207  A    between atoms: _499  and  _501
REMARK  208  A    between atoms: _501  and  _502
REMARK  209  A    between atoms: _501  and  _504
REMARK  210  A    between atoms: _504  and  _505
REMARK  211  A    between atoms: _508  and  _510
REMARK  212  A    between atoms: _510  and  _511
REMARK  213  A    between atoms: _510  and  _513
REMARK  214  A    between atoms: _516  and  _518
REMARK  215  A    between atoms: _518  and  _519
REMARK  216  A    between atoms: _518  and  _521
REMARK  217  A    between atoms: _521  and  _522
REMARK  218  A    between atoms: _525  and  _527
REMARK  219  A    between atoms: _527  and  _528
REMARK  220  A    between atoms: _527  and  _530
REMARK  221  A    between atoms: _530  and  _531
REMARK  222  A    between atoms: _531  and  _532
REMARK  223  A    between atoms: _532  and  _533
REMARK  224  A    between atoms: _533  and  _534
REMARK  225  A    between atoms: _538  and  _540
REMARK  226  A    between atoms: _540  and  _541
REMARK  227  A    between atoms: _540  and  _543
REMARK  228  A    between atoms: _546  and  _548
REMARK  229  A    between atoms: _548  and  _549
REMARK  230  A    between atoms: _548  and  _551
REMARK  231  A    between atoms: _551  and  _552
REMARK                            x       y       z     vdW  Elec       q    Type
REMARK                         _______ _______ _______ _____ _____    ______ ____
ROOT
ATOM      1  O   HOH     1      11.812  14.255  26.840  0.00  0.00    +0.000 OA
ENDROOT
TORSDOF 0
REMARK  Name = ../refined-set-2016/4cwt/4cwt_pocket.pdb
REMARK  231 active torsions:
REMARK  status: ('A' for Active; 'I' for Inactive)
REMARK    1  A    between atoms: _1  and  _3
REMARK    2  A    between atoms: _3  and  _4
REMARK    3  A    between atoms: _3  and  _6
REMARK    4  A    between atoms: _6  and  _7
REMARK    5  A    between atoms: _13  and  _15
REMARK    6  A    between atoms: _15  and  _16
REMARK    7  A    between atoms: _19  and  _21
REMARK    8  A    between atoms: _21  and  _22
REMARK    9  A    between atoms: _21  and  _24
REMARK   10  A    between atoms: _24  and  _25
REMARK   11  A    between atoms: _31  and  _33
REMARK   12  A    between atoms: _33  and  _34
REMARK   13  A    between atoms: _33  and  _36
REMARK   14  A    between atoms: _36  and  _37
REMARK   15  A    between atoms: _37  and  _38
REMARK   16  A    between atoms: _43  and  _45
REMARK   17  A    between atoms: _45  and  _46
REMARK   18  A    between atoms: _45  and  _48
REMARK   19  A    between atoms: _48  and  _49
REMARK   20  A    between atoms: _52  and  _54
REMARK   21  A    between atoms: _54  and  _55
REMARK   22  A    between atoms: _54  and  _57
REMARK   23  A    between atoms: _57  and  _58
REMARK   24  A    between atoms: _61  and  _63
REMARK   25  A    between atoms: _63  and  _64
REMARK   26  A    between atoms: _63  and  _66
REMARK   27  A    between atoms: _66  and  _67
REMARK   28  A    between atoms: _67  and  _68
REMARK   29  A    between atoms: _70  and  _72
REMARK   30  A    between atoms: _72  and  _73
REMARK   31  A    between atoms: _72  and  _75
REMARK   32  A    between atoms: _75  and  _76
REMARK   33  A    between atoms: _76  and  _77
REMARK   34  A    between atoms: _80  and  _82
REMARK   35  A    between atoms: _82  and  _83
REMARK   36  A    between atoms: _82  and  _85
REMARK   37  A    between atoms: _85  and  _86
REMARK   38  A    between atoms: _89  and  _91
REMARK   39  A    between atoms: _91  and  _92
REMARK   40  A    between atoms: _91  and  _94
REMARK   41  A    between atoms: _94  and  _95
REMARK   42  A    between atoms: _97  and  _99
REMARK   43  A    between atoms: _99  and  _100
REMARK   44  A    between atoms: _99  and  _102
REMARK   45  A    between atoms: _102  and  _103
REMARK   46  A    between atoms: _108  and  _110
REMARK   47  A    between atoms: _110  and  _111
REMARK   48  A    between atoms: _110  and  _113
REMARK   49  A    between atoms: _113  and  _114
REMARK   50  A    between atoms: _116  and  _118
REMARK   51  A    between atoms: _118  and  _119
REMARK   52  A    between atoms: _118  and  _121
REMARK   53  A    between atoms: _121  and  _122
REMARK   54  A    between atoms: _125  and  _127
REMARK   55  A    between atoms: _127  and  _128
REMARK   56  A    between atoms: _131  and  _133
REMARK   57  A    between atoms: _133  and  _134
REMARK   58  A    between atoms: _133  and  _136
REMARK   59  A    between atoms: _136  and  _137
REMARK   60  A    between atoms: _137  and  _138
REMARK   61  A    between atoms: _138  and  _139
REMARK   62  A    between atoms: _139  and  _140
REMARK   63  A    between atoms: _144  and  _146
REMARK   64  A    between atoms: _146  and  _147
REMARK   65  A    between atoms: _146  and  _149
REMARK   66  A    between atoms: _149  and  _150
REMARK   67  A    between atoms: _153  and  _155
REMARK   68  A    between atoms: _155  and  _156
REMARK   69  A    between atoms: _158  and  _160
REMARK   70  A    between atoms: _160  and  _161
REMARK   71  A    between atoms: _160  and  _163
REMARK   72  A    between atoms: _163  and  _164
REMARK   73  A    between atoms: _164  and  _165
REMARK   74  A    between atoms: _167  and  _169
REMARK   75  A    between atoms: _169  and  _170
REMARK   76  A    between atoms: _169  and  _172
REMARK   77  A    between atoms: _172  and  _173
REMARK   78  A    between atoms: _176  and  _178
REMARK   79  A    between atoms: _178  and  _179
REMARK   80  A    between atoms: _178  and  _181
REMARK   81  A    between atoms: _181  and  _182
REMARK   82  A    between atoms: _182  and  _183
REMARK   83  A    between atoms: _183  and  _184
REMARK   84  A    between atoms: _184  and  _185
REMARK   85  A    between atoms: _189  and  _191
REMARK   86  A    between atoms: _191  and  _192
REMARK   87  A    between atoms: _195  and  _197
REMARK   88  A    between atoms: _197  and  _198
REMARK   89  A    between atoms: _197  and  _200
REMARK   90  A    between atoms: _200  and  _201
REMARK   91  A    between atoms: _204  and  _206
REMARK   92  A    between atoms: _206  and  _207
REMARK   93  A    between atoms: _206  and  _209
REMARK   94  A    between atoms: _209  and  _210
REMARK   95  A    between atoms: _213  and  _215
REMARK   96  A    between atoms: _215  and  _216
REMARK   97  A    between atoms: _215  and  _218
REMARK   98  A    between atoms: _218  and  _219
REMARK   99  A    between atoms: _222  and  _224
REMARK  100  A    between atoms: _224  and  _225
REMARK  101  A    between atoms: _224  and  _227
REMARK  102  A    between atoms: _227  and  _228
REMARK  103  A    between atoms: _233  and  _235
REMARK  104  A    between atoms: _235  and  _236
REMARK  105  A    between atoms: _235  and  _238
REMARK  106  A    between atoms: _238  and  _239
REMARK  107  A    between atoms: _244  and  _246
REMARK  108  A    between atoms: _246  and  _247
REMARK  109  A    between atoms: _246  and  _249
REMARK  110  A    between atoms: _249  and  _250
REMARK  111  A    between atoms: _253  and  _255
REMARK  112  A    between atoms: _255  and  _256
REMARK  113  A    between atoms: _258  and  _260
REMARK  114  A    between atoms: _260  and  _261
REMARK  115  A    between atoms: _260  and  _263
REMARK  116  A    between atoms: _263  and  _264
REMARK  117  A    between atoms: _267  and  _269
REMARK  118  A    between atoms: _269  and  _270
REMARK  119  A    between atoms: _269  and  _272
REMARK  120  A    between atoms: _272  and  _273
REMARK  121  A    between atoms: _276  and  _278
REMARK  122  A    between atoms: _278  and  _279
REMARK  123  A    between atoms: _282  and  _284
REMARK  124  A    between atoms: _284  and  _285
REMARK  125  A    between atoms: _284  and  _287
REMARK  126  A    between atoms: _287  and  _288
REMARK  127  A    between atoms: _288  and  _289
REMARK  128  A    between atoms: _289  and  _290
REMARK  129  A    between atoms: _290  and  _291
REMARK  130  A    between atoms: _295  and  _297
REMARK  131  A    between atoms: _297  and  _298
REMARK  132  A    between atoms: _300  and  _302
REMARK  133  A    between atoms: _302  and  _303
REMARK  134  A    between atoms: _302  and  _305
REMARK  135  A    between atoms: _305  and  _306
REMARK  136  A    between atoms: _309  and  _311
REMARK  137  A    between atoms: _311  and  _312
REMARK  138  A    between atoms: _311  and  _314
REMARK  139  A    between atoms: _314  and  _315
REMARK  140  A    between atoms: _321  and  _323
REMARK  141  A    between atoms: _323  and  _324
REMARK  142  A    between atoms: _326  and  _328
REMARK  143  A    between atoms: _328  and  _329
REMARK  144  A    between atoms: _328  and  _331
REMARK  145  A    between atoms: _334  and  _336
REMARK  146  A    between atoms: _336  and  _337
REMARK  147  A    between atoms: _339  and  _341
REMARK  148  A    between atoms: _341  and  _342
REMARK  149  A    between atoms: _341  and  _344
REMARK  150  A    between atoms: _344  and  _345
REMARK  151  A    between atoms: _351  and  _353
REMARK  152  A    between atoms: _353  and  _354
REMARK  153  A    between atoms: _353  and  _356
REMARK  154  A    between atoms: _356  and  _357
REMARK  155  A    between atoms: _362  and  _363
REMARK  156  A    between atoms: _365  and  _367
REMARK  157  A    between atoms: _367  and  _368
REMARK  158  A    between atoms: _367  and  _370
REMARK  159  A    between atoms: _370  and  _371
REMARK  160  A    between atoms: _376  and  _377
REMARK  161  A    between atoms: _379  and  _381
REMARK  162  A    between atoms: _381  and  _382
REMARK  163  A    between atoms: _381  and  _384
REMARK  164  A    between atoms: _387  and  _389
REMARK  165  A    between atoms: _389  and  _390
REMARK  166  A    between atoms: _389  and  _392
REMARK  167  A    between atoms: _392  and  _393
REMARK  168  A    between atoms: _396  and  _398
REMARK  169  A    between atoms: _398  and  _399
REMARK  170  A    between atoms: _398  and  _401
REMARK  171  A    between atoms: _404  and  _406
REMARK  172  A    between atoms: _406  and  _407
REMARK  173  A    between atoms: _406  and  _409
REMARK  174  A    between atoms: _409  and  _410
REMARK  175  A    between atoms: _413  and  _415
REMARK  176  A    between atoms: _415  and  _416
REMARK  177  A    between atoms: _415  and  _418
REMARK  178  A    between atoms: _418  and  _419
REMARK  179  A    between atoms: _422  and  _424
REMARK  180  A    between atoms: _424  and  _425
REMARK  181  A    between atoms: _424  and  _427
REMARK  182  A    between atoms: _427  and  _428
REMARK  183  A    between atoms: _433  and  _435
REMARK  184  A    between atoms: _435  and  _436
REMARK  185  A    between atoms: _435  and  _438
REMARK  186  A    between atoms: _438  and  _439
REMARK  187  A    between atoms: _444  and  _445
REMARK  188  A    between atoms: _447  and  _449
REMARK  189  A    between atoms: _449  and  _450
REMARK  190  A    between atoms: _453  and  _455
REMARK  191  A    between atoms: _455  and  _456
REMARK  192  A    between atoms: _455  and  _458
REMARK  193  A    between atoms: _458  and  _459
REMARK  194  A    between atoms: _469  and  _471
REMARK  195  A    between atoms: _471  and  _472
REMARK  196  A    between atoms: _471  and  _474
REMARK  197  A    between atoms: _474  and  _475
REMARK  198  A    between atoms: _475  and  _476
REMARK  199  A    between atoms: _479  and  _481
REMARK  200  A    between atoms: _481  and  _482
REMARK  201  A    between atoms: _481  and  _484
REMARK  202  A    between atoms: _484  and  _485
REMARK  203  A    between atoms: _487  and  _489
REMARK  204  A    between atoms: _489  and  _490
REMARK  205  A    between atoms: _489  and  _492
REMARK  206  A    between atoms: _492  and  _493
REMARK  207  A    between atoms: _499  and  _501
REMARK  208  A    between atoms: _501  and  _502
REMARK  209  A    between atoms: _501  and  _504
REMARK  210  A    between atoms: _504  and  _505
REMARK  211  A    between atoms: _508  and  _510
REMARK  212  A    between atoms: _510  and  _511
REMARK  213  A    between atoms: _510  and  _513
REMARK  214  A    between atoms: _516  and  _518
REMARK  215  A    between atoms: _518  and  _519
REMARK  216  A    between atoms: _518  and  _521
REMARK  217  A    between atoms: _521  and  _522
REMARK  218  A    between atoms: _525  and  _527
REMARK  219  A    between atoms: _527  and  _528
REMARK  220  A    between atoms: _527  and  _530
REMARK  221  A    between atoms: _530  and  _531
REMARK  222  A    between atoms: _531  and  _532
REMARK  223  A    between atoms: _532  and  _533
REMARK  224  A    between atoms: _533  and  _534
REMARK  225  A    between atoms: _538  and  _540
REMARK  226  A    between atoms: _540  and  _541
REMARK  227  A    between atoms: _540  and  _543
REMARK  228  A    between atoms: _546  and  _548
REMARK  229  A    between atoms: _548  and  _549
REMARK  230  A    between atoms: _548  and  _551
REMARK  231  A    between atoms: _551  and  _552
REMARK                            x       y       z     vdW  Elec       q    Type
REMARK                         _______ _______ _______ _____ _____    ______ ____
ROOT
ATOM      1  O   HOH     1       4.688   6.898  18.051  0.00  0.00    +0.000 OA
ENDROOT
TORSDOF 0
REMARK  Name = ../refined-set-2016/4cwt/4cwt_pocket.pdb
REMARK  231 active torsions:
REMARK  status: ('A' for Active; 'I' for Inactive)
REMARK    1  A    between atoms: _1  and  _3
REMARK    2  A    between atoms: _3  and  _4
REMARK    3  A    between atoms: _3  and  _6
REMARK    4  A    between atoms: _6  and  _7
REMARK    5  A    between atoms: _13  and  _15
REMARK    6  A    between atoms: _15  and  _16
REMARK    7  A    between atoms: _19  and  _21
REMARK    8  A    between atoms: _21  and  _22
REMARK    9  A    between atoms: _21  and  _24
REMARK   10  A    between atoms: _24  and  _25
REMARK   11  A    between atoms: _31  and  _33
REMARK   12  A    between atoms: _33  and  _34
REMARK   13  A    between atoms: _33  and  _36
REMARK   14  A    between atoms: _36  and  _37
REMARK   15  A    between atoms: _37  and  _38
REMARK   16  A    between atoms: _43  and  _45
REMARK   17  A    between atoms: _45  and  _46
REMARK   18  A    between atoms: _45  and  _48
REMARK   19  A    between atoms: _48  and  _49
REMARK   20  A    between atoms: _52  and  _54
REMARK   21  A    between atoms: _54  and  _55
REMARK   22  A    between atoms: _54  and  _57
REMARK   23  A    between atoms: _57  and  _58
REMARK   24  A    between atoms: _61  and  _63
REMARK   25  A    between atoms: _63  and  _64
REMARK   26  A    between atoms: _63  and  _66
REMARK   27  A    between atoms: _66  and  _67
REMARK   28  A    between atoms: _67  and  _68
REMARK   29  A    between atoms: _70  and  _72
REMARK   30  A    between atoms: _72  and  _73
REMARK   31  A    between atoms: _72  and  _75
REMARK   32  A    between atoms: _75  and  _76
REMARK   33  A    between atoms: _76  and  _77
REMARK   34  A    between atoms: _80  and  _82
REMARK   35  A    between atoms: _82  and  _83
REMARK   36  A    between atoms: _82  and  _85
REMARK   37  A    between atoms: _85  and  _86
REMARK   38  A    between atoms: _89  and  _91
REMARK   39  A    between atoms: _91  and  _92
REMARK   40  A    between atoms: _91  and  _94
REMARK   41  A    between atoms: _94  and  _95
REMARK   42  A    between atoms: _97  and  _99
REMARK   43  A    between atoms: _99  and  _100
REMARK   44  A    between atoms: _99  and  _102
REMARK   45  A    between atoms: _102  and  _103
REMARK   46  A    between atoms: _108  and  _110
REMARK   47  A    between atoms: _110  and  _111
REMARK   48  A    between atoms: _110  and  _113
REMARK   49  A    between atoms: _113  and  _114
REMARK   50  A    between atoms: _116  and  _118
REMARK   51  A    between atoms: _118  and  _119
REMARK   52  A    between atoms: _118  and  _121
REMARK   53  A    between atoms: _121  and  _122
REMARK   54  A    between atoms: _125  and  _127
REMARK   55  A    between atoms: _127  and  _128
REMARK   56  A    between atoms: _131  and  _133
REMARK   57  A    between atoms: _133  and  _134
REMARK   58  A    between atoms: _133  and  _136
REMARK   59  A    between atoms: _136  and  _137
REMARK   60  A    between atoms: _137  and  _138
REMARK   61  A    between atoms: _138  and  _139
REMARK   62  A    between atoms: _139  and  _140
REMARK   63  A    between atoms: _144  and  _146
REMARK   64  A    between atoms: _146  and  _147
REMARK   65  A    between atoms: _146  and  _149
REMARK   66  A    between atoms: _149  and  _150
REMARK   67  A    between atoms: _153  and  _155
REMARK   68  A    between atoms: _155  and  _156
REMARK   69  A    between atoms: _158  and  _160
REMARK   70  A    between atoms: _160  and  _161
REMARK   71  A    between atoms: _160  and  _163
REMARK   72  A    between atoms: _163  and  _164
REMARK   73  A    between atoms: _164  and  _165
REMARK   74  A    between atoms: _167  and  _169
REMARK   75  A    between atoms: _169  and  _170
REMARK   76  A    between atoms: _169  and  _172
REMARK   77  A    between atoms: _172  and  _173
REMARK   78  A    between atoms: _176  and  _178
REMARK   79  A    between atoms: _178  and  _179
REMARK   80  A    between atoms: _178  and  _181
REMARK   81  A    between atoms: _181  and  _182
REMARK   82  A    between atoms: _182  and  _183
REMARK   83  A    between atoms: _183  and  _184
REMARK   84  A    between atoms: _184  and  _185
REMARK   85  A    between atoms: _189  and  _191
REMARK   86  A    between atoms: _191  and  _192
REMARK   87  A    between atoms: _195  and  _197
REMARK   88  A    between atoms: _197  and  _198
REMARK   89  A    between atoms: _197  and  _200
REMARK   90  A    between atoms: _200  and  _201
REMARK   91  A    between atoms: _204  and  _206
REMARK   92  A    between atoms: _206  and  _207
REMARK   93  A    between atoms: _206  and  _209
REMARK   94  A    between atoms: _209  and  _210
REMARK   95  A    between atoms: _213  and  _215
REMARK   96  A    between atoms: _215  and  _216
REMARK   97  A    between atoms: _215  and  _218
REMARK   98  A    between atoms: _218  and  _219
REMARK   99  A    between atoms: _222  and  _224
REMARK  100  A    between atoms: _224  and  _225
REMARK  101  A    between atoms: _224  and  _227
REMARK  102  A    between atoms: _227  and  _228
REMARK  103  A    between atoms: _233  and  _235
REMARK  104  A    between atoms: _235  and  _236
REMARK  105  A    between atoms: _235  and  _238
REMARK  106  A    between atoms: _238  and  _239
REMARK  107  A    between atoms: _244  and  _246
REMARK  108  A    between atoms: _246  and  _247
REMARK  109  A    between atoms: _246  and  _249
REMARK  110  A    between atoms: _249  and  _250
REMARK  111  A    between atoms: _253  and  _255
REMARK  112  A    between atoms: _255  and  _256
REMARK  113  A    between atoms: _258  and  _260
REMARK  114  A    between atoms: _260  and  _261
REMARK  115  A    between atoms: _260  and  _263
REMARK  116  A    between atoms: _263  and  _264
REMARK  117  A    between atoms: _267  and  _269
REMARK  118  A    between atoms: _269  and  _270
REMARK  119  A    between atoms: _269  and  _272
REMARK  120  A    between atoms: _272  and  _273
REMARK  121  A    between atoms: _276  and  _278
REMARK  122  A    between atoms: _278  and  _279
REMARK  123  A    between atoms: _282  and  _284
REMARK  124  A    between atoms: _284  and  _285
REMARK  125  A    between atoms: _284  and  _287
REMARK  126  A    between atoms: _287  and  _288
REMARK  127  A    between atoms: _288  and  _289
REMARK  128  A    between atoms: _289  and  _290
REMARK  129  A    between atoms: _290  and  _291
REMARK  130  A    between atoms: _295  and  _297
REMARK  131  A    between atoms: _297  and  _298
REMARK  132  A    between atoms: _300  and  _302
REMARK  133  A    between atoms: _302  and  _303
REMARK  134  A    between atoms: _302  and  _305
REMARK  135  A    between atoms: _305  and  _306
REMARK  136  A    between atoms: _309  and  _311
REMARK  137  A    between atoms: _311  and  _312
REMARK  138  A    between atoms: _311  and  _314
REMARK  139  A    between atoms: _314  and  _315
REMARK  140  A    between atoms: _321  and  _323
REMARK  141  A    between atoms: _323  and  _324
REMARK  142  A    between atoms: _326  and  _328
REMARK  143  A    between atoms: _328  and  _329
REMARK  144  A    between atoms: _328  and  _331
REMARK  145  A    between atoms: _334  and  _336
REMARK  146  A    between atoms: _336  and  _337
REMARK  147  A    between atoms: _339  and  _341
REMARK  148  A    between atoms: _341  and  _342
REMARK  149  A    between atoms: _341  and  _344
REMARK  150  A    between atoms: _344  and  _345
REMARK  151  A    between atoms: _351  and  _353
REMARK  152  A    between atoms: _353  and  _354
REMARK  153  A    between atoms: _353  and  _356
REMARK  154  A    between atoms: _356  and  _357
REMARK  155  A    between atoms: _362  and  _363
REMARK  156  A    between atoms: _365  and  _367
REMARK  157  A    between atoms: _367  and  _368
REMARK  158  A    between atoms: _367  and  _370
REMARK  159  A    between atoms: _370  and  _371
REMARK  160  A    between atoms: _376  and  _377
REMARK  161  A    between atoms: _379  and  _381
REMARK  162  A    between atoms: _381  and  _382
REMARK  163  A    between atoms: _381  and  _384
REMARK  164  A    between atoms: _387  and  _389
REMARK  165  A    between atoms: _389  and  _390
REMARK  166  A    between atoms: _389  and  _392
REMARK  167  A    between atoms: _392  and  _393
REMARK  168  A    between atoms: _396  and  _398
REMARK  169  A    between atoms: _398  and  _399
REMARK  170  A    between atoms: _398  and  _401
REMARK  171  A    between atoms: _404  and  _406
REMARK  172  A    between atoms: _406  and  _407
REMARK  173  A    between atoms: _406  and  _409
REMARK  174  A    between atoms: _409  and  _410
REMARK  175  A    between atoms: _413  and  _415
REMARK  176  A    between atoms: _415  and  _416
REMARK  177  A    between atoms: _415  and  _418
REMARK  178  A    between atoms: _418  and  _419
REMARK  179  A    between atoms: _422  and  _424
REMARK  180  A    between atoms: _424  and  _425
REMARK  181  A    between atoms: _424  and  _427
REMARK  182  A    between atoms: _427  and  _428
REMARK  183  A    between atoms: _433  and  _435
REMARK  184  A    between atoms: _435  and  _436
REMARK  185  A    between atoms: _435  and  _438
REMARK  186  A    between atoms: _438  and  _439
REMARK  187  A    between atoms: _444  and  _445
REMARK  188  A    between atoms: _447  and  _449
REMARK  189  A    between atoms: _449  and  _450
REMARK  190  A    between atoms: _453  and  _455
REMARK  191  A    between atoms: _455  and  _456
REMARK  192  A    between atoms: _455  and  _458
REMARK  193  A    between atoms: _458  and  _459
REMARK  194  A    between atoms: _469  and  _471
REMARK  195  A    between atoms: _471  and  _472
REMARK  196  A    between atoms: _471  and  _474
REMARK  197  A    between atoms: _474  and  _475
REMARK  198  A    between atoms: _475  and  _476
REMARK  199  A    between atoms: _479  and  _481
REMARK  200  A    between atoms: _481  and  _482
REMARK  201  A    between atoms: _481  and  _484
REMARK  202  A    between atoms: _484  and  _485
REMARK  203  A    between atoms: _487  and  _489
REMARK  204  A    between atoms: _489  and  _490
REMARK  205  A    between atoms: _489  and  _492
REMARK  206  A    between atoms: _492  and  _493
REMARK  207  A    between atoms: _499  and  _501
REMARK  208  A    between atoms: _501  and  _502
REMARK  209  A    between atoms: _501  and  _504
REMARK  210  A    between atoms: _504  and  _505
REMARK  211  A    between atoms: _508  and  _510
REMARK  212  A    between atoms: _510  and  _511
REMARK  213  A    between atoms: _510  and  _513
REMARK  214  A    between atoms: _516  and  _518
REMARK  215  A    between atoms: _518  and  _519
REMARK  216  A    between atoms: _518  and  _521
REMARK  217  A    between atoms: _521  and  _522
REMARK  218  A    between atoms: _525  and  _527
REMARK  219  A    between atoms: _527  and  _528
REMARK  220  A    between atoms: _527  and  _530
REMARK  221  A    between atoms: _530  and  _531
REMARK  222  A    between atoms: _531  and  _532
REMARK  223  A    between atoms: _532  and  _533
REMARK  224  A    between atoms: _533  and  _534
REMARK  225  A    between atoms: _538  and  _540
REMARK  226  A    between atoms: _540  and  _541
REMARK  227  A    between atoms: _540  and  _543
REMARK  228  A    between atoms: _546  and  _548
REMARK  229  A    between atoms: _548  and  _549
REMARK  230  A    between atoms: _548  and  _551
REMARK  231  A    between atoms: _551  and  _552
REMARK                            x       y       z     vdW  Elec       q    Type
REMARK                         _______ _______ _______ _____ _____    ______ ____
ROOT
ATOM      1  O   HOH     1       4.616   3.406  18.824  0.00  0.00    +0.000 OA
ENDROOT
TORSDOF 0
REMARK  Name = ../refined-set-2016/4cwt/4cwt_pocket.pdb
REMARK  231 active torsions:
REMARK  status: ('A' for Active; 'I' for Inactive)
REMARK    1  A    between atoms: _1  and  _3
REMARK    2  A    between atoms: _3  and  _4
REMARK    3  A    between atoms: _3  and  _6
REMARK    4  A    between atoms: _6  and  _7
REMARK    5  A    between atoms: _13  and  _15
REMARK    6  A    between atoms: _15  and  _16
REMARK    7  A    between atoms: _19  and  _21
REMARK    8  A    between atoms: _21  and  _22
REMARK    9  A    between atoms: _21  and  _24
REMARK   10  A    between atoms: _24  and  _25
REMARK   11  A    between atoms: _31  and  _33
REMARK   12  A    between atoms: _33  and  _34
REMARK   13  A    between atoms: _33  and  _36
REMARK   14  A    between atoms: _36  and  _37
REMARK   15  A    between atoms: _37  and  _38
REMARK   16  A    between atoms: _43  and  _45
REMARK   17  A    between atoms: _45  and  _46
REMARK   18  A    between atoms: _45  and  _48
REMARK   19  A    between atoms: _48  and  _49
REMARK   20  A    between atoms: _52  and  _54
REMARK   21  A    between atoms: _54  and  _55
REMARK   22  A    between atoms: _54  and  _57
REMARK   23  A    between atoms: _57  and  _58
REMARK   24  A    between atoms: _61  and  _63
REMARK   25  A    between atoms: _63  and  _64
REMARK   26  A    between atoms: _63  and  _66
REMARK   27  A    between atoms: _66  and  _67
REMARK   28  A    between atoms: _67  and  _68
REMARK   29  A    between atoms: _70  and  _72
REMARK   30  A    between atoms: _72  and  _73
REMARK   31  A    between atoms: _72  and  _75
REMARK   32  A    between atoms: _75  and  _76
REMARK   33  A    between atoms: _76  and  _77
REMARK   34  A    between atoms: _80  and  _82
REMARK   35  A    between atoms: _82  and  _83
REMARK   36  A    between atoms: _82  and  _85
REMARK   37  A    between atoms: _85  and  _86
REMARK   38  A    between atoms: _89  and  _91
REMARK   39  A    between atoms: _91  and  _92
REMARK   40  A    between atoms: _91  and  _94
REMARK   41  A    between atoms: _94  and  _95
REMARK   42  A    between atoms: _97  and  _99
REMARK   43  A    between atoms: _99  and  _100
REMARK   44  A    between atoms: _99  and  _102
REMARK   45  A    between atoms: _102  and  _103
REMARK   46  A    between atoms: _108  and  _110
REMARK   47  A    between atoms: _110  and  _111
REMARK   48  A    between atoms: _110  and  _113
REMARK   49  A    between atoms: _113  and  _114
REMARK   50  A    between atoms: _116  and  _118
REMARK   51  A    between atoms: _118  and  _119
REMARK   52  A    between atoms: _118  and  _121
REMARK   53  A    between atoms: _121  and  _122
REMARK   54  A    between atoms: _125  and  _127
REMARK   55  A    between atoms: _127  and  _128
REMARK   56  A    between atoms: _131  and  _133
REMARK   57  A    between atoms: _133  and  _134
REMARK   58  A    between atoms: _133  and  _136
REMARK   59  A    between atoms: _136  and  _137
REMARK   60  A    between atoms: _137  and  _138
REMARK   61  A    between atoms: _138  and  _139
REMARK   62  A    between atoms: _139  and  _140
REMARK   63  A    between atoms: _144  and  _146
REMARK   64  A    between atoms: _146  and  _147
REMARK   65  A    between atoms: _146  and  _149
REMARK   66  A    between atoms: _149  and  _150
REMARK   67  A    between atoms: _153  and  _155
REMARK   68  A    between atoms: _155  and  _156
REMARK   69  A    between atoms: _158  and  _160
REMARK   70  A    between atoms: _160  and  _161
REMARK   71  A    between atoms: _160  and  _163
REMARK   72  A    between atoms: _163  and  _164
REMARK   73  A    between atoms: _164  and  _165
REMARK   74  A    between atoms: _167  and  _169
REMARK   75  A    between atoms: _169  and  _170
REMARK   76  A    between atoms: _169  and  _172
REMARK   77  A    between atoms: _172  and  _173
REMARK   78  A    between atoms: _176  and  _178
REMARK   79  A    between atoms: _178  and  _179
REMARK   80  A    between atoms: _178  and  _181
REMARK   81  A    between atoms: _181  and  _182
REMARK   82  A    between atoms: _182  and  _183
REMARK   83  A    between atoms: _183  and  _184
REMARK   84  A    between atoms: _184  and  _185
REMARK   85  A    between atoms: _189  and  _191
REMARK   86  A    between atoms: _191  and  _192
REMARK   87  A    between atoms: _195  and  _197
REMARK   88  A    between atoms: _197  and  _198
REMARK   89  A    between atoms: _197  and  _200
REMARK   90  A    between atoms: _200  and  _201
REMARK   91  A    between atoms: _204  and  _206
REMARK   92  A    between atoms: _206  and  _207
REMARK   93  A    between atoms: _206  and  _209
REMARK   94  A    between atoms: _209  and  _210
REMARK   95  A    between atoms: _213  and  _215
REMARK   96  A    between atoms: _215  and  _216
REMARK   97  A    between atoms: _215  and  _218
REMARK   98  A    between atoms: _218  and  _219
REMARK   99  A    between atoms: _222  and  _224
REMARK  100  A    between atoms: _224  and  _225
REMARK  101  A    between atoms: _224  and  _227
REMARK  102  A    between atoms: _227  and  _228
REMARK  103  A    between atoms: _233  and  _235
REMARK  104  A    between atoms: _235  and  _236
REMARK  105  A    between atoms: _235  and  _238
REMARK  106  A    between atoms: _238  and  _239
REMARK  107  A    between atoms: _244  and  _246
REMARK  108  A    between atoms: _246  and  _247
REMARK  109  A    between atoms: _246  and  _249
REMARK  110  A    between atoms: _249  and  _250
REMARK  111  A    between atoms: _253  and  _255
REMARK  112  A    between atoms: _255  and  _256
REMARK  113  A    between atoms: _258  and  _260
REMARK  114  A    between atoms: _260  and  _261
REMARK  115  A    between atoms: _260  and  _263
REMARK  116  A    between atoms: _263  and  _264
REMARK  117  A    between atoms: _267  and  _269
REMARK  118  A    between atoms: _269  and  _270
REMARK  119  A    between atoms: _269  and  _272
REMARK  120  A    between atoms: _272  and  _273
REMARK  121  A    between atoms: _276  and  _278
REMARK  122  A    between atoms: _278  and  _279
REMARK  123  A    between atoms: _282  and  _284
REMARK  124  A    between atoms: _284  and  _285
REMARK  125  A    between atoms: _284  and  _287
REMARK  126  A    between atoms: _287  and  _288
REMARK  127  A    between atoms: _288  and  _289
REMARK  128  A    between atoms: _289  and  _290
REMARK  129  A    between atoms: _290  and  _291
REMARK  130  A    between atoms: _295  and  _297
REMARK  131  A    between atoms: _297  and  _298
REMARK  132  A    between atoms: _300  and  _302
REMARK  133  A    between atoms: _302  and  _303
REMARK  134  A    between atoms: _302  and  _305
REMARK  135  A    between atoms: _305  and  _306
REMARK  136  A    between atoms: _309  and  _311
REMARK  137  A    between atoms: _311  and  _312
REMARK  138  A    between atoms: _311  and  _314
REMARK  139  A    between atoms: _314  and  _315
REMARK  140  A    between atoms: _321  and  _323
REMARK  141  A    between atoms: _323  and  _324
REMARK  142  A    between atoms: _326  and  _328
REMARK  143  A    between atoms: _328  and  _329
REMARK  144  A    between atoms: _328  and  _331
REMARK  145  A    between atoms: _334  and  _336
REMARK  146  A    between atoms: _336  and  _337
REMARK  147  A    between atoms: _339  and  _341
REMARK  148  A    between atoms: _341  and  _342
REMARK  149  A    between atoms: _341  and  _344
REMARK  150  A    between atoms: _344  and  _345
REMARK  151  A    between atoms: _351  and  _353
REMARK  152  A    between atoms: _353  and  _354
REMARK  153  A    between atoms: _353  and  _356
REMARK  154  A    between atoms: _356  and  _357
REMARK  155  A    between atoms: _362  and  _363
REMARK  156  A    between atoms: _365  and  _367
REMARK  157  A    between atoms: _367  and  _368
REMARK  158  A    between atoms: _367  and  _370
REMARK  159  A    between atoms: _370  and  _371
REMARK  160  A    between atoms: _376  and  _377
REMARK  161  A    between atoms: _379  and  _381
REMARK  162  A    between atoms: _381  and  _382
REMARK  163  A    between atoms: _381  and  _384
REMARK  164  A    between atoms: _387  and  _389
REMARK  165  A    between atoms: _389  and  _390
REMARK  166  A    between atoms: _389  and  _392
REMARK  167  A    between atoms: _392  and  _393
REMARK  168  A    between atoms: _396  and  _398
REMARK  169  A    between atoms: _398  and  _399
REMARK  170  A    between atoms: _398  and  _401
REMARK  171  A    between atoms: _404  and  _406
REMARK  172  A    between atoms: _406  and  _407
REMARK  173  A    between atoms: _406  and  _409
REMARK  174  A    between atoms: _409  and  _410
REMARK  175  A    between atoms: _413  and  _415
REMARK  176  A    between atoms: _415  and  _416
REMARK  177  A    between atoms: _415  and  _418
REMARK  178  A    between atoms: _418  and  _419
REMARK  179  A    between atoms: _422  and  _424
REMARK  180  A    between atoms: _424  and  _425
REMARK  181  A    between atoms: _424  and  _427
REMARK  182  A    between atoms: _427  and  _428
REMARK  183  A    between atoms: _433  and  _435
REMARK  184  A    between atoms: _435  and  _436
REMARK  185  A    between atoms: _435  and  _438
REMARK  186  A    between atoms: _438  and  _439
REMARK  187  A    between atoms: _444  and  _445
REMARK  188  A    between atoms: _447  and  _449
REMARK  189  A    between atoms: _449  and  _450
REMARK  190  A    between atoms: _453  and  _455
REMARK  191  A    between atoms: _455  and  _456
REMARK  192  A    between atoms: _455  and  _458
REMARK  193  A    between atoms: _458  and  _459
REMARK  194  A    between atoms: _469  and  _471
REMARK  195  A    between atoms: _471  and  _472
REMARK  196  A    between atoms: _471  and  _474
REMARK  197  A    between atoms: _474  and  _475
REMARK  198  A    between atoms: _475  and  _476
REMARK  199  A    between atoms: _479  and  _481
REMARK  200  A    between atoms: _481  and  _482
REMARK  201  A    between atoms: _481  and  _484
REMARK  202  A    between atoms: _484  and  _485
REMARK  203  A    between atoms: _487  and  _489
REMARK  204  A    between atoms: _489  and  _490
REMARK  205  A    between atoms: _489  and  _492
REMARK  206  A    between atoms: _492  and  _493
REMARK  207  A    between atoms: _499  and  _501
REMARK  208  A    between atoms: _501  and  _502
REMARK  209  A    between atoms: _501  and  _504
REMARK  210  A    between atoms: _504  and  _505
REMARK  211  A    between atoms: _508  and  _510
REMARK  212  A    between atoms: _510  and  _511
REMARK  213  A    between atoms: _510  and  _513
REMARK  214  A    between atoms: _516  and  _518
REMARK  215  A    between atoms: _518  and  _519
REMARK  216  A    between atoms: _518  and  _521
REMARK  217  A    between atoms: _521  and  _522
REMARK  218  A    between atoms: _525  and  _527
REMARK  219  A    between atoms: _527  and  _528
REMARK  220  A    between atoms: _527  and  _530
REMARK  221  A    between atoms: _530  and  _531
REMARK  222  A    between atoms: _531  and  _532
REMARK  223  A    between atoms: _532  and  _533
REMARK  224  A    between atoms: _533  and  _534
REMARK  225  A    between atoms: _538  and  _540
REMARK  226  A    between atoms: _540  and  _541
REMARK  227  A    between atoms: _540  and  _543
REMARK  228  A    between atoms: _546  and  _548
REMARK  229  A    between atoms: _548  and  _549
REMARK  230  A    between atoms: _548  and  _551
REMARK  231  A    between atoms: _551  and  _552
REMARK                            x       y       z     vdW  Elec       q    Type
REMARK                         _______ _______ _______ _____ _____    ______ ____
ROOT
ATOM      1  O   HOH     1      10.129   3.540  20.974  0.00  0.00    +0.000 OA
ENDROOT
TORSDOF 0
REMARK  Name = ../refined-set-2016/4cwt/4cwt_pocket.pdb
REMARK  231 active torsions:
REMARK  status: ('A' for Active; 'I' for Inactive)
REMARK    1  A    between atoms: _1  and  _3
REMARK    2  A    between atoms: _3  and  _4
REMARK    3  A    between atoms: _3  and  _6
REMARK    4  A    between atoms: _6  and  _7
REMARK    5  A    between atoms: _13  and  _15
REMARK    6  A    between atoms: _15  and  _16
REMARK    7  A    between atoms: _19  and  _21
REMARK    8  A    between atoms: _21  and  _22
REMARK    9  A    between atoms: _21  and  _24
REMARK   10  A    between atoms: _24  and  _25
REMARK   11  A    between atoms: _31  and  _33
REMARK   12  A    between atoms: _33  and  _34
REMARK   13  A    between atoms: _33  and  _36
REMARK   14  A    between atoms: _36  and  _37
REMARK   15  A    between atoms: _37  and  _38
REMARK   16  A    between atoms: _43  and  _45
REMARK   17  A    between atoms: _45  and  _46
REMARK   18  A    between atoms: _45  and  _48
REMARK   19  A    between atoms: _48  and  _49
REMARK   20  A    between atoms: _52  and  _54
REMARK   21  A    between atoms: _54  and  _55
REMARK   22  A    between atoms: _54  and  _57
REMARK   23  A    between atoms: _57  and  _58
REMARK   24  A    between atoms: _61  and  _63
REMARK   25  A    between atoms: _63  and  _64
REMARK   26  A    between atoms: _63  and  _66
REMARK   27  A    between atoms: _66  and  _67
REMARK   28  A    between atoms: _67  and  _68
REMARK   29  A    between atoms: _70  and  _72
REMARK   30  A    between atoms: _72  and  _73
REMARK   31  A    between atoms: _72  and  _75
REMARK   32  A    between atoms: _75  and  _76
REMARK   33  A    between atoms: _76  and  _77
REMARK   34  A    between atoms: _80  and  _82
REMARK   35  A    between atoms: _82  and  _83
REMARK   36  A    between atoms: _82  and  _85
REMARK   37  A    between atoms: _85  and  _86
REMARK   38  A    between atoms: _89  and  _91
REMARK   39  A    between atoms: _91  and  _92
REMARK   40  A    between atoms: _91  and  _94
REMARK   41  A    between atoms: _94  and  _95
REMARK   42  A    between atoms: _97  and  _99
REMARK   43  A    between atoms: _99  and  _100
REMARK   44  A    between atoms: _99  and  _102
REMARK   45  A    between atoms: _102  and  _103
REMARK   46  A    between atoms: _108  and  _110
REMARK   47  A    between atoms: _110  and  _111
REMARK   48  A    between atoms: _110  and  _113
REMARK   49  A    between atoms: _113  and  _114
REMARK   50  A    between atoms: _116  and  _118
REMARK   51  A    between atoms: _118  and  _119
REMARK   52  A    between atoms: _118  and  _121
REMARK   53  A    between atoms: _121  and  _122
REMARK   54  A    between atoms: _125  and  _127
REMARK   55  A    between atoms: _127  and  _128
REMARK   56  A    between atoms: _131  and  _133
REMARK   57  A    between atoms: _133  and  _134
REMARK   58  A    between atoms: _133  and  _136
REMARK   59  A    between atoms: _136  and  _137
REMARK   60  A    between atoms: _137  and  _138
REMARK   61  A    between atoms: _138  and  _139
REMARK   62  A    between atoms: _139  and  _140
REMARK   63  A    between atoms: _144  and  _146
REMARK   64  A    between atoms: _146  and  _147
REMARK   65  A    between atoms: _146  and  _149
REMARK   66  A    between atoms: _149  and  _150
REMARK   67  A    between atoms: _153  and  _155
REMARK   68  A    between atoms: _155  and  _156
REMARK   69  A    between atoms: _158  and  _160
REMARK   70  A    between atoms: _160  and  _161
REMARK   71  A    between atoms: _160  and  _163
REMARK   72  A    between atoms: _163  and  _164
REMARK   73  A    between atoms: _164  and  _165
REMARK   74  A    between atoms: _167  and  _169
REMARK   75  A    between atoms: _169  and  _170
REMARK   76  A    between atoms: _169  and  _172
REMARK   77  A    between atoms: _172  and  _173
REMARK   78  A    between atoms: _176  and  _178
REMARK   79  A    between atoms: _178  and  _179
REMARK   80  A    between atoms: _178  and  _181
REMARK   81  A    between atoms: _181  and  _182
REMARK   82  A    between atoms: _182  and  _183
REMARK   83  A    between atoms: _183  and  _184
REMARK   84  A    between atoms: _184  and  _185
REMARK   85  A    between atoms: _189  and  _191
REMARK   86  A    between atoms: _191  and  _192
REMARK   87  A    between atoms: _195  and  _197
REMARK   88  A    between atoms: _197  and  _198
REMARK   89  A    between atoms: _197  and  _200
REMARK   90  A    between atoms: _200  and  _201
REMARK   91  A    between atoms: _204  and  _206
REMARK   92  A    between atoms: _206  and  _207
REMARK   93  A    between atoms: _206  and  _209
REMARK   94  A    between atoms: _209  and  _210
REMARK   95  A    between atoms: _213  and  _215
REMARK   96  A    between atoms: _215  and  _216
REMARK   97  A    between atoms: _215  and  _218
REMARK   98  A    between atoms: _218  and  _219
REMARK   99  A    between atoms: _222  and  _224
REMARK  100  A    between atoms: _224  and  _225
REMARK  101  A    between atoms: _224  and  _227
REMARK  102  A    between atoms: _227  and  _228
REMARK  103  A    between atoms: _233  and  _235
REMARK  104  A    between atoms: _235  and  _236
REMARK  105  A    between atoms: _235  and  _238
REMARK  106  A    between atoms: _238  and  _239
REMARK  107  A    between atoms: _244  and  _246
REMARK  108  A    between atoms: _246  and  _247
REMARK  109  A    between atoms: _246  and  _249
REMARK  110  A    between atoms: _249  and  _250
REMARK  111  A    between atoms: _253  and  _255
REMARK  112  A    between atoms: _255  and  _256
REMARK  113  A    between atoms: _258  and  _260
REMARK  114  A    between atoms: _260  and  _261
REMARK  115  A    between atoms: _260  and  _263
REMARK  116  A    between atoms: _263  and  _264
REMARK  117  A    between atoms: _267  and  _269
REMARK  118  A    between atoms: _269  and  _270
REMARK  119  A    between atoms: _269  and  _272
REMARK  120  A    between atoms: _272  and  _273
REMARK  121  A    between atoms: _276  and  _278
REMARK  122  A    between atoms: _278  and  _279
REMARK  123  A    between atoms: _282  and  _284
REMARK  124  A    between atoms: _284  and  _285
REMARK  125  A    between atoms: _284  and  _287
REMARK  126  A    between atoms: _287  and  _288
REMARK  127  A    between atoms: _288  and  _289
REMARK  128  A    between atoms: _289  and  _290
REMARK  129  A    between atoms: _290  and  _291
REMARK  130  A    between atoms: _295  and  _297
REMARK  131  A    between atoms: _297  and  _298
REMARK  132  A    between atoms: _300  and  _302
REMARK  133  A    between atoms: _302  and  _303
REMARK  134  A    between atoms: _302  and  _305
REMARK  135  A    between atoms: _305  and  _306
REMARK  136  A    between atoms: _309  and  _311
REMARK  137  A    between atoms: _311  and  _312
REMARK  138  A    between atoms: _311  and  _314
REMARK  139  A    between atoms: _314  and  _315
REMARK  140  A    between atoms: _321  and  _323
REMARK  141  A    between atoms: _323  and  _324
REMARK  142  A    between atoms: _326  and  _328
REMARK  143  A    between atoms: _328  and  _329
REMARK  144  A    between atoms: _328  and  _331
REMARK  145  A    between atoms: _334  and  _336
REMARK  146  A    between atoms: _336  and  _337
REMARK  147  A    between atoms: _339  and  _341
REMARK  148  A    between atoms: _341  and  _342
REMARK  149  A    between atoms: _341  and  _344
REMARK  150  A    between atoms: _344  and  _345
REMARK  151  A    between atoms: _351  and  _353
REMARK  152  A    between atoms: _353  and  _354
REMARK  153  A    between atoms: _353  and  _356
REMARK  154  A    between atoms: _356  and  _357
REMARK  155  A    between atoms: _362  and  _363
REMARK  156  A    between atoms: _365  and  _367
REMARK  157  A    between atoms: _367  and  _368
REMARK  158  A    between atoms: _367  and  _370
REMARK  159  A    between atoms: _370  and  _371
REMARK  160  A    between atoms: _376  and  _377
REMARK  161  A    between atoms: _379  and  _381
REMARK  162  A    between atoms: _381  and  _382
REMARK  163  A    between atoms: _381  and  _384
REMARK  164  A    between atoms: _387  and  _389
REMARK  165  A    between atoms: _389  and  _390
REMARK  166  A    between atoms: _389  and  _392
REMARK  167  A    between atoms: _392  and  _393
REMARK  168  A    between atoms: _396  and  _398
REMARK  169  A    between atoms: _398  and  _399
REMARK  170  A    between atoms: _398  and  _401
REMARK  171  A    between atoms: _404  and  _406
REMARK  172  A    between atoms: _406  and  _407
REMARK  173  A    between atoms: _406  and  _409
REMARK  174  A    between atoms: _409  and  _410
REMARK  175  A    between atoms: _413  and  _415
REMARK  176  A    between atoms: _415  and  _416
REMARK  177  A    between atoms: _415  and  _418
REMARK  178  A    between atoms: _418  and  _419
REMARK  179  A    between atoms: _422  and  _424
REMARK  180  A    between atoms: _424  and  _425
REMARK  181  A    between atoms: _424  and  _427
REMARK  182  A    between atoms: _427  and  _428
REMARK  183  A    between atoms: _433  and  _435
REMARK  184  A    between atoms: _435  and  _436
REMARK  185  A    between atoms: _435  and  _438
REMARK  186  A    between atoms: _438  and  _439
REMARK  187  A    between atoms: _444  and  _445
REMARK  188  A    between atoms: _447  and  _449
REMARK  189  A    between atoms: _449  and  _450
REMARK  190  A    between atoms: _453  and  _455
REMARK  191  A    between atoms: _455  and  _456
REMARK  192  A    between atoms: _455  and  _458
REMARK  193  A    between atoms: _458  and  _459
REMARK  194  A    between atoms: _469  and  _471
REMARK  195  A    between atoms: _471  and  _472
REMARK  196  A    between atoms: _471  and  _474
REMARK  197  A    between atoms: _474  and  _475
REMARK  198  A    between atoms: _475  and  _476
REMARK  199  A    between atoms: _479  and  _481
REMARK  200  A    between atoms: _481  and  _482
REMARK  201  A    between atoms: _481  and  _484
REMARK  202  A    between atoms: _484  and  _485
REMARK  203  A    between atoms: _487  and  _489
REMARK  204  A    between atoms: _489  and  _490
REMARK  205  A    between atoms: _489  and  _492
REMARK  206  A    between atoms: _492  and  _493
REMARK  207  A    between atoms: _499  and  _501
REMARK  208  A    between atoms: _501  and  _502
REMARK  209  A    between atoms: _501  and  _504
REMARK  210  A    between atoms: _504  and  _505
REMARK  211  A    between atoms: _508  and  _510
REMARK  212  A    between atoms: _510  and  _511
REMARK  213  A    between atoms: _510  and  _513
REMARK  214  A    between atoms: _516  and  _518
REMARK  215  A    between atoms: _518  and  _519
REMARK  216  A    between atoms: _518  and  _521
REMARK  217  A    between atoms: _521  and  _522
REMARK  218  A    between atoms: _525  and  _527
REMARK  219  A    between atoms: _527  and  _528
REMARK  220  A    between atoms: _527  and  _530
REMARK  221  A    between atoms: _530  and  _531
REMARK  222  A    between atoms: _531  and  _532
REMARK  223  A    between atoms: _532  and  _533
REMARK  224  A    between atoms: _533  and  _534
REMARK  225  A    between atoms: _538  and  _540
REMARK  226  A    between atoms: _540  and  _541
REMARK  227  A    between atoms: _540  and  _543
REMARK  228  A    between atoms: _546  and  _548
REMARK  229  A    between atoms: _548  and  _549
REMARK  230  A    between atoms: _548  and  _551
REMARK  231  A    between atoms: _551  and  _552
REMARK                            x       y       z     vdW  Elec       q    Type
REMARK                         _______ _______ _______ _____ _____    ______ ____
ROOT
ATOM      1  O   HOH     1       6.814   7.046  23.493  0.00  0.00    +0.000 OA
ENDROOT
TORSDOF 0
REMARK  Name = ../refined-set-2016/4cwt/4cwt_pocket.pdb
REMARK  231 active torsions:
REMARK  status: ('A' for Active; 'I' for Inactive)
REMARK    1  A    between atoms: _1  and  _3
REMARK    2  A    between atoms: _3  and  _4
REMARK    3  A    between atoms: _3  and  _6
REMARK    4  A    between atoms: _6  and  _7
REMARK    5  A    between atoms: _13  and  _15
REMARK    6  A    between atoms: _15  and  _16
REMARK    7  A    between atoms: _19  and  _21
REMARK    8  A    between atoms: _21  and  _22
REMARK    9  A    between atoms: _21  and  _24
REMARK   10  A    between atoms: _24  and  _25
REMARK   11  A    between atoms: _31  and  _33
REMARK   12  A    between atoms: _33  and  _34
REMARK   13  A    between atoms: _33  and  _36
REMARK   14  A    between atoms: _36  and  _37
REMARK   15  A    between atoms: _37  and  _38
REMARK   16  A    between atoms: _43  and  _45
REMARK   17  A    between atoms: _45  and  _46
REMARK   18  A    between atoms: _45  and  _48
REMARK   19  A    between atoms: _48  and  _49
REMARK   20  A    between atoms: _52  and  _54
REMARK   21  A    between atoms: _54  and  _55
REMARK   22  A    between atoms: _54  and  _57
REMARK   23  A    between atoms: _57  and  _58
REMARK   24  A    between atoms: _61  and  _63
REMARK   25  A    between atoms: _63  and  _64
REMARK   26  A    between atoms: _63  and  _66
REMARK   27  A    between atoms: _66  and  _67
REMARK   28  A    between atoms: _67  and  _68
REMARK   29  A    between atoms: _70  and  _72
REMARK   30  A    between atoms: _72  and  _73
REMARK   31  A    between atoms: _72  and  _75
REMARK   32  A    between atoms: _75  and  _76
REMARK   33  A    between atoms: _76  and  _77
REMARK   34  A    between atoms: _80  and  _82
REMARK   35  A    between atoms: _82  and  _83
REMARK   36  A    between atoms: _82  and  _85
REMARK   37  A    between atoms: _85  and  _86
REMARK   38  A    between atoms: _89  and  _91
REMARK   39  A    between atoms: _91  and  _92
REMARK   40  A    between atoms: _91  and  _94
REMARK   41  A    between atoms: _94  and  _95
REMARK   42  A    between atoms: _97  and  _99
REMARK   43  A    between atoms: _99  and  _100
REMARK   44  A    between atoms: _99  and  _102
REMARK   45  A    between atoms: _102  and  _103
REMARK   46  A    between atoms: _108  and  _110
REMARK   47  A    between atoms: _110  and  _111
REMARK   48  A    between atoms: _110  and  _113
REMARK   49  A    between atoms: _113  and  _114
REMARK   50  A    between atoms: _116  and  _118
REMARK   51  A    between atoms: _118  and  _119
REMARK   52  A    between atoms: _118  and  _121
REMARK   53  A    between atoms: _121  and  _122
REMARK   54  A    between atoms: _125  and  _127
REMARK   55  A    between atoms: _127  and  _128
REMARK   56  A    between atoms: _131  and  _133
REMARK   57  A    between atoms: _133  and  _134
REMARK   58  A    between atoms: _133  and  _136
REMARK   59  A    between atoms: _136  and  _137
REMARK   60  A    between atoms: _137  and  _138
REMARK   61  A    between atoms: _138  and  _139
REMARK   62  A    between atoms: _139  and  _140
REMARK   63  A    between atoms: _144  and  _146
REMARK   64  A    between atoms: _146  and  _147
REMARK   65  A    between atoms: _146  and  _149
REMARK   66  A    between atoms: _149  and  _150
REMARK   67  A    between atoms: _153  and  _155
REMARK   68  A    between atoms: _155  and  _156
REMARK   69  A    between atoms: _158  and  _160
REMARK   70  A    between atoms: _160  and  _161
REMARK   71  A    between atoms: _160  and  _163
REMARK   72  A    between atoms: _163  and  _164
REMARK   73  A    between atoms: _164  and  _165
REMARK   74  A    between atoms: _167  and  _169
REMARK   75  A    between atoms: _169  and  _170
REMARK   76  A    between atoms: _169  and  _172
REMARK   77  A    between atoms: _172  and  _173
REMARK   78  A    between atoms: _176  and  _178
REMARK   79  A    between atoms: _178  and  _179
REMARK   80  A    between atoms: _178  and  _181
REMARK   81  A    between atoms: _181  and  _182
REMARK   82  A    between atoms: _182  and  _183
REMARK   83  A    between atoms: _183  and  _184
REMARK   84  A    between atoms: _184  and  _185
REMARK   85  A    between atoms: _189  and  _191
REMARK   86  A    between atoms: _191  and  _192
REMARK   87  A    between atoms: _195  and  _197
REMARK   88  A    between atoms: _197  and  _198
REMARK   89  A    between atoms: _197  and  _200
REMARK   90  A    between atoms: _200  and  _201
REMARK   91  A    between atoms: _204  and  _206
REMARK   92  A    between atoms: _206  and  _207
REMARK   93  A    between atoms: _206  and  _209
REMARK   94  A    between atoms: _209  and  _210
REMARK   95  A    between atoms: _213  and  _215
REMARK   96  A    between atoms: _215  and  _216
REMARK   97  A    between atoms: _215  and  _218
REMARK   98  A    between atoms: _218  and  _219
REMARK   99  A    between atoms: _222  and  _224
REMARK  100  A    between atoms: _224  and  _225
REMARK  101  A    between atoms: _224  and  _227
REMARK  102  A    between atoms: _227  and  _228
REMARK  103  A    between atoms: _233  and  _235
REMARK  104  A    between atoms: _235  and  _236
REMARK  105  A    between atoms: _235  and  _238
REMARK  106  A    between atoms: _238  and  _239
REMARK  107  A    between atoms: _244  and  _246
REMARK  108  A    between atoms: _246  and  _247
REMARK  109  A    between atoms: _246  and  _249
REMARK  110  A    between atoms: _249  and  _250
REMARK  111  A    between atoms: _253  and  _255
REMARK  112  A    between atoms: _255  and  _256
REMARK  113  A    between atoms: _258  and  _260
REMARK  114  A    between atoms: _260  and  _261
REMARK  115  A    between atoms: _260  and  _263
REMARK  116  A    between atoms: _263  and  _264
REMARK  117  A    between atoms: _267  and  _269
REMARK  118  A    between atoms: _269  and  _270
REMARK  119  A    between atoms: _269  and  _272
REMARK  120  A    between atoms: _272  and  _273
REMARK  121  A    between atoms: _276  and  _278
REMARK  122  A    between atoms: _278  and  _279
REMARK  123  A    between atoms: _282  and  _284
REMARK  124  A    between atoms: _284  and  _285
REMARK  125  A    between atoms: _284  and  _287
REMARK  126  A    between atoms: _287  and  _288
REMARK  127  A    between atoms: _288  and  _289
REMARK  128  A    between atoms: _289  and  _290
REMARK  129  A    between atoms: _290  and  _291
REMARK  130  A    between atoms: _295  and  _297
REMARK  131  A    between atoms: _297  and  _298
REMARK  132  A    between atoms: _300  and  _302
REMARK  133  A    between atoms: _302  and  _303
REMARK  134  A    between atoms: _302  and  _305
REMARK  135  A    between atoms: _305  and  _306
REMARK  136  A    between atoms: _309  and  _311
REMARK  137  A    between atoms: _311  and  _312
REMARK  138  A    between atoms: _311  and  _314
REMARK  139  A    between atoms: _314  and  _315
REMARK  140  A    between atoms: _321  and  _323
REMARK  141  A    between atoms: _323  and  _324
REMARK  142  A    between atoms: _326  and  _328
REMARK  143  A    between atoms: _328  and  _329
REMARK  144  A    between atoms: _328  and  _331
REMARK  145  A    between atoms: _334  and  _336
REMARK  146  A    between atoms: _336  and  _337
REMARK  147  A    between atoms: _339  and  _341
REMARK  148  A    between atoms: _341  and  _342
REMARK  149  A    between atoms: _341  and  _344
REMARK  150  A    between atoms: _344  and  _345
REMARK  151  A    between atoms: _351  and  _353
REMARK  152  A    between atoms: _353  and  _354
REMARK  153  A    between atoms: _353  and  _356
REMARK  154  A    between atoms: _356  and  _357
REMARK  155  A    between atoms: _362  and  _363
REMARK  156  A    between atoms: _365  and  _367
REMARK  157  A    between atoms: _367  and  _368
REMARK  158  A    between atoms: _367  and  _370
REMARK  159  A    between atoms: _370  and  _371
REMARK  160  A    between atoms: _376  and  _377
REMARK  161  A    between atoms: _379  and  _381
REMARK  162  A    between atoms: _381  and  _382
REMARK  163  A    between atoms: _381  and  _384
REMARK  164  A    between atoms: _387  and  _389
REMARK  165  A    between atoms: _389  and  _390
REMARK  166  A    between atoms: _389  and  _392
REMARK  167  A    between atoms: _392  and  _393
REMARK  168  A    between atoms: _396  and  _398
REMARK  169  A    between atoms: _398  and  _399
REMARK  170  A    between atoms: _398  and  _401
REMARK  171  A    between atoms: _404  and  _406
REMARK  172  A    between atoms: _406  and  _407
REMARK  173  A    between atoms: _406  and  _409
REMARK  174  A    between atoms: _409  and  _410
REMARK  175  A    between atoms: _413  and  _415
REMARK  176  A    between atoms: _415  and  _416
REMARK  177  A    between atoms: _415  and  _418
REMARK  178  A    between atoms: _418  and  _419
REMARK  179  A    between atoms: _422  and  _424
REMARK  180  A    between atoms: _424  and  _425
REMARK  181  A    between atoms: _424  and  _427
REMARK  182  A    between atoms: _427  and  _428
REMARK  183  A    between atoms: _433  and  _435
REMARK  184  A    between atoms: _435  and  _436
REMARK  185  A    between atoms: _435  and  _438
REMARK  186  A    between atoms: _438  and  _439
REMARK  187  A    between atoms: _444  and  _445
REMARK  188  A    between atoms: _447  and  _449
REMARK  189  A    between atoms: _449  and  _450
REMARK  190  A    between atoms: _453  and  _455
REMARK  191  A    between atoms: _455  and  _456
REMARK  192  A    between atoms: _455  and  _458
REMARK  193  A    between atoms: _458  and  _459
REMARK  194  A    between atoms: _469  and  _471
REMARK  195  A    between atoms: _471  and  _472
REMARK  196  A    between atoms: _471  and  _474
REMARK  197  A    between atoms: _474  and  _475
REMARK  198  A    between atoms: _475  and  _476
REMARK  199  A    between atoms: _479  and  _481
REMARK  200  A    between atoms: _481  and  _482
REMARK  201  A    between atoms: _481  and  _484
REMARK  202  A    between atoms: _484  and  _485
REMARK  203  A    between atoms: _487  and  _489
REMARK  204  A    between atoms: _489  and  _490
REMARK  205  A    between atoms: _489  and  _492
REMARK  206  A    between atoms: _492  and  _493
REMARK  207  A    between atoms: _499  and  _501
REMARK  208  A    between atoms: _501  and  _502
REMARK  209  A    between atoms: _501  and  _504
REMARK  210  A    between atoms: _504  and  _505
REMARK  211  A    between atoms: _508  and  _510
REMARK  212  A    between atoms: _510  and  _511
REMARK  213  A    between atoms: _510  and  _513
REMARK  214  A    between atoms: _516  and  _518
REMARK  215  A    between atoms: _518  and  _519
REMARK  216  A    between atoms: _518  and  _521
REMARK  217  A    between atoms: _521  and  _522
REMARK  218  A    between atoms: _525  and  _527
REMARK  219  A    between atoms: _527  and  _528
REMARK  220  A    between atoms: _527  and  _530
REMARK  221  A    between atoms: _530  and  _531
REMARK  222  A    between atoms: _531  and  _532
REMARK  223  A    between atoms: _532  and  _533
REMARK  224  A    between atoms: _533  and  _534
REMARK  225  A    between atoms: _538  and  _540
REMARK  226  A    between atoms: _540  and  _541
REMARK  227  A    between atoms: _540  and  _543
REMARK  228  A    between atoms: _546  and  _548
REMARK  229  A    between atoms: _548  and  _549
REMARK  230  A    between atoms: _548  and  _551
REMARK  231  A    between atoms: _551  and  _552
REMARK                            x       y       z     vdW  Elec       q    Type
REMARK                         _______ _______ _______ _____ _____    ______ ____
ROOT
ATOM      1  O   HOH     1       0.746  13.151  23.923  0.00  0.00    +0.000 OA
ENDROOT
TORSDOF 0
