REMARK  Name = ../refined-set-2016/3nu6/3nu6_pocket.pdb
REMARK  238 active torsions:
REMARK  status: ('A' for Active; 'I' for Inactive)
REMARK    1  A    between atoms: _1  and  _3
REMARK    2  A    between atoms: _3  and  _4
REMARK    3  A    between atoms: _3  and  _6
REMARK    4  A    between atoms: _6  and  _7
REMARK    5  A    between atoms: _7  and  _8
REMARK    6  A    between atoms: _8  and  _9
REMARK    7  A    between atoms: _18  and  _20
REMARK    8  A    between atoms: _20  and  _21
REMARK    9  A    between atoms: _20  and  _23
REMARK   10  A    between atoms: _23  and  _24
REMARK   11  A    between atoms: _27  and  _29
REMARK   12  A    between atoms: _29  and  _30
REMARK   13  A    between atoms: _29  and  _32
REMARK   14  A    between atoms: _32  and  _33
REMARK   15  A    between atoms: _36  and  _38
REMARK   16  A    between atoms: _38  and  _39
REMARK   17  A    between atoms: _38  and  _41
REMARK   18  A    between atoms: _41  and  _42
REMARK   19  A    between atoms: _45  and  _47
REMARK   20  A    between atoms: _47  and  _48
REMARK   21  A    between atoms: _47  and  _50
REMARK   22  A    between atoms: _50  and  _51
REMARK   23  A    between atoms: _54  and  _56
REMARK   24  A    between atoms: _56  and  _57
REMARK   25  A    between atoms: _59  and  _61
REMARK   26  A    between atoms: _61  and  _62
REMARK   27  A    between atoms: _65  and  _67
REMARK   28  A    between atoms: _67  and  _68
REMARK   29  A    between atoms: _67  and  _70
REMARK   30  A    between atoms: _70  and  _71
REMARK   31  A    between atoms: _74  and  _76
REMARK   32  A    between atoms: _76  and  _77
REMARK   33  A    between atoms: _76  and  _79
REMARK   34  A    between atoms: _79  and  _80
REMARK   35  A    between atoms: _83  and  _85
REMARK   36  A    between atoms: _85  and  _86
REMARK   37  A    between atoms: _85  and  _88
REMARK   38  A    between atoms: _88  and  _89
REMARK   39  A    between atoms: _92  and  _94
REMARK   40  A    between atoms: _94  and  _95
REMARK   41  A    between atoms: _94  and  _97
REMARK   42  A    between atoms: _100  and  _102
REMARK   43  A    between atoms: _102  and  _103
REMARK   44  A    between atoms: _102  and  _105
REMARK   45  A    between atoms: _106  and  _107
REMARK   46  A    between atoms: _107  and  _108
REMARK   47  A    between atoms: _108  and  _109
REMARK   48  A    between atoms: _113  and  _115
REMARK   49  A    between atoms: _115  and  _116
REMARK   50  A    between atoms: _115  and  _118
REMARK   51  A    between atoms: _118  and  _119
REMARK   52  A    between atoms: _119  and  _120
REMARK   53  A    between atoms: _122  and  _124
REMARK   54  A    between atoms: _124  and  _125
REMARK   55  A    between atoms: _124  and  _127
REMARK   56  A    between atoms: _127  and  _128
REMARK   57  A    between atoms: _131  and  _133
REMARK   58  A    between atoms: _133  and  _134
REMARK   59  A    between atoms: _136  and  _138
REMARK   60  A    between atoms: _138  and  _139
REMARK   61  A    between atoms: _141  and  _143
REMARK   62  A    between atoms: _143  and  _144
REMARK   63  A    between atoms: _143  and  _146
REMARK   64  A    between atoms: _146  and  _147
REMARK   65  A    between atoms: _150  and  _152
REMARK   66  A    between atoms: _152  and  _153
REMARK   67  A    between atoms: _155  and  _157
REMARK   68  A    between atoms: _157  and  _158
REMARK   69  A    between atoms: _160  and  _162
REMARK   70  A    between atoms: _162  and  _163
REMARK   71  A    between atoms: _162  and  _165
REMARK   72  A    between atoms: _165  and  _166
REMARK   73  A    between atoms: _172  and  _174
REMARK   74  A    between atoms: _174  and  _175
REMARK   75  A    between atoms: _174  and  _177
REMARK   76  A    between atoms: _177  and  _178
REMARK   77  A    between atoms: _178  and  _179
REMARK   78  A    between atoms: _181  and  _183
REMARK   79  A    between atoms: _183  and  _184
REMARK   80  A    between atoms: _183  and  _186
REMARK   81  A    between atoms: _189  and  _191
REMARK   82  A    between atoms: _191  and  _192
REMARK   83  A    between atoms: _191  and  _194
REMARK   84  A    between atoms: _194  and  _195
REMARK   85  A    between atoms: _199  and  _200
REMARK   86  A    between atoms: _205  and  _207
REMARK   87  A    between atoms: _207  and  _208
REMARK   88  A    between atoms: _207  and  _210
REMARK   89  A    between atoms: _210  and  _211
REMARK   90  A    between atoms: _215  and  _216
REMARK   91  A    between atoms: _221  and  _223
REMARK   92  A    between atoms: _223  and  _224
REMARK   93  A    between atoms: _223  and  _226
REMARK   94  A    between atoms: _229  and  _231
REMARK   95  A    between atoms: _231  and  _232
REMARK   96  A    between atoms: _231  and  _234
REMARK   97  A    between atoms: _234  and  _235
REMARK   98  A    between atoms: _240  and  _242
REMARK   99  A    between atoms: _242  and  _243
REMARK  100  A    between atoms: _242  and  _245
REMARK  101  A    between atoms: _245  and  _246
REMARK  102  A    between atoms: _249  and  _251
REMARK  103  A    between atoms: _251  and  _252
REMARK  104  A    between atoms: _251  and  _254
REMARK  105  A    between atoms: _254  and  _255
REMARK  106  A    between atoms: _258  and  _260
REMARK  107  A    between atoms: _260  and  _261
REMARK  108  A    between atoms: _263  and  _265
REMARK  109  A    between atoms: _265  and  _266
REMARK  110  A    between atoms: _265  and  _268
REMARK  111  A    between atoms: _268  and  _269
REMARK  112  A    between atoms: _269  and  _270
REMARK  113  A    between atoms: _270  and  _271
REMARK  114  A    between atoms: _280  and  _282
REMARK  115  A    between atoms: _282  and  _283
REMARK  116  A    between atoms: _282  and  _285
REMARK  117  A    between atoms: _285  and  _286
REMARK  118  A    between atoms: _291  and  _293
REMARK  119  A    between atoms: _293  and  _294
REMARK  120  A    between atoms: _293  and  _296
REMARK  121  A    between atoms: _296  and  _297
REMARK  122  A    between atoms: _297  and  _298
REMARK  123  A    between atoms: _298  and  _299
REMARK  124  A    between atoms: _308  and  _310
REMARK  125  A    between atoms: _310  and  _311
REMARK  126  A    between atoms: _310  and  _313
REMARK  127  A    between atoms: _313  and  _314
REMARK  128  A    between atoms: _317  and  _319
REMARK  129  A    between atoms: _319  and  _320
REMARK  130  A    between atoms: _319  and  _322
REMARK  131  A    between atoms: _322  and  _323
REMARK  132  A    between atoms: _326  and  _328
REMARK  133  A    between atoms: _328  and  _329
REMARK  134  A    between atoms: _328  and  _331
REMARK  135  A    between atoms: _331  and  _332
REMARK  136  A    between atoms: _335  and  _337
REMARK  137  A    between atoms: _337  and  _338
REMARK  138  A    between atoms: _337  and  _340
REMARK  139  A    between atoms: _340  and  _341
REMARK  140  A    between atoms: _344  and  _346
REMARK  141  A    between atoms: _346  and  _347
REMARK  142  A    between atoms: _349  and  _351
REMARK  143  A    between atoms: _351  and  _352
REMARK  144  A    between atoms: _355  and  _357
REMARK  145  A    between atoms: _357  and  _358
REMARK  146  A    between atoms: _357  and  _360
REMARK  147  A    between atoms: _360  and  _361
REMARK  148  A    between atoms: _364  and  _366
REMARK  149  A    between atoms: _366  and  _367
REMARK  150  A    between atoms: _366  and  _369
REMARK  151  A    between atoms: _369  and  _370
REMARK  152  A    between atoms: _373  and  _375
REMARK  153  A    between atoms: _375  and  _376
REMARK  154  A    between atoms: _375  and  _378
REMARK  155  A    between atoms: _378  and  _379
REMARK  156  A    between atoms: _382  and  _384
REMARK  157  A    between atoms: _384  and  _385
REMARK  158  A    between atoms: _384  and  _387
REMARK  159  A    between atoms: _390  and  _392
REMARK  160  A    between atoms: _392  and  _393
REMARK  161  A    between atoms: _392  and  _395
REMARK  162  A    between atoms: _395  and  _396
REMARK  163  A    between atoms: _399  and  _401
REMARK  164  A    between atoms: _401  and  _402
REMARK  165  A    between atoms: _401  and  _404
REMARK  166  A    between atoms: _404  and  _405
REMARK  167  A    between atoms: _405  and  _406
REMARK  168  A    between atoms: _406  and  _407
REMARK  169  A    between atoms: _407  and  _408
REMARK  170  A    between atoms: _412  and  _414
REMARK  171  A    between atoms: _414  and  _415
REMARK  172  A    between atoms: _414  and  _417
REMARK  173  A    between atoms: _417  and  _418
REMARK  174  A    between atoms: _418  and  _419
REMARK  175  A    between atoms: _421  and  _423
REMARK  176  A    between atoms: _423  and  _424
REMARK  177  A    between atoms: _423  and  _426
REMARK  178  A    between atoms: _426  and  _427
REMARK  179  A    between atoms: _430  and  _432
REMARK  180  A    between atoms: _432  and  _433
REMARK  181  A    between atoms: _435  and  _437
REMARK  182  A    between atoms: _437  and  _438
REMARK  183  A    between atoms: _440  and  _442
REMARK  184  A    between atoms: _442  and  _443
REMARK  185  A    between atoms: _442  and  _445
REMARK  186  A    between atoms: _445  and  _446
REMARK  187  A    between atoms: _449  and  _451
REMARK  188  A    between atoms: _451  and  _452
REMARK  189  A    between atoms: _454  and  _456
REMARK  190  A    between atoms: _456  and  _457
REMARK  191  A    between atoms: _459  and  _461
REMARK  192  A    between atoms: _461  and  _462
REMARK  193  A    between atoms: _461  and  _464
REMARK  194  A    between atoms: _464  and  _465
REMARK  195  A    between atoms: _471  and  _473
REMARK  196  A    between atoms: _473  and  _474
REMARK  197  A    between atoms: _473  and  _476
REMARK  198  A    between atoms: _476  and  _477
REMARK  199  A    between atoms: _477  and  _478
REMARK  200  A    between atoms: _480  and  _482
REMARK  201  A    between atoms: _482  and  _483
REMARK  202  A    between atoms: _482  and  _485
REMARK  203  A    between atoms: _488  and  _490
REMARK  204  A    between atoms: _490  and  _491
REMARK  205  A    between atoms: _490  and  _493
REMARK  206  A    between atoms: _493  and  _494
REMARK  207  A    between atoms: _497  and  _499
REMARK  208  A    between atoms: _499  and  _500
REMARK  209  A    between atoms: _499  and  _502
REMARK  210  A    between atoms: _502  and  _503
REMARK  211  A    between atoms: _507  and  _508
REMARK  212  A    between atoms: _513  and  _515
REMARK  213  A    between atoms: _515  and  _516
REMARK  214  A    between atoms: _515  and  _518
REMARK  215  A    between atoms: _521  and  _523
REMARK  216  A    between atoms: _523  and  _524
REMARK  217  A    between atoms: _523  and  _526
REMARK  218  A    between atoms: _526  and  _527
REMARK  219  A    between atoms: _532  and  _534
REMARK  220  A    between atoms: _534  and  _535
REMARK  221  A    between atoms: _534  and  _537
REMARK  222  A    between atoms: _537  and  _538
REMARK  223  A    between atoms: _541  and  _543
REMARK  224  A    between atoms: _543  and  _544
REMARK  225  A    between atoms: _543  and  _546
REMARK  226  A    between atoms: _546  and  _547
REMARK  227  A    between atoms: _550  and  _552
REMARK  228  A    between atoms: _552  and  _553
REMARK  229  A    between atoms: _555  and  _557
REMARK  230  A    between atoms: _557  and  _558
REMARK  231  A    between atoms: _557  and  _560
REMARK  232  A    between atoms: _560  and  _561
REMARK  233  A    between atoms: _561  and  _562
REMARK  234  A    between atoms: _562  and  _563
REMARK  235  A    between atoms: _572  and  _574
REMARK  236  A    between atoms: _574  and  _575
REMARK  237  A    between atoms: _574  and  _577
REMARK  238  A    between atoms: _577  and  _578
REMARK                            x       y       z     vdW  Elec       q    Type
REMARK                         _______ _______ _______ _____ _____    ______ ____
ROOT
ATOM      1  NE  ARG A   1      -6.554 -21.791 -14.994  0.00  0.00    -0.265 N 
ATOM      2  CZ  ARG A   1      -7.465 -22.359 -14.180  0.00  0.00    +0.342 C 
ATOM      3  NH2 ARG A   1      -7.693 -21.880 -12.973  0.00  0.00    -0.292 N 
ATOM      4 HH21 ARG A   1      -8.400 -22.332 -12.359  0.00  0.00    +0.255 HD
ATOM      5 HH22 ARG A   1      -7.166 -21.050 -12.635  0.00  0.00    +0.255 HD
ATOM      6  NH1 ARG A   1      -8.177 -23.417 -14.551  0.00  0.00    -0.292 N 
ATOM      7 HH11 ARG A   1      -8.872 -23.831 -13.898  0.00  0.00    +0.255 HD
ATOM      8 HH12 ARG A   1      -8.039 -23.832 -15.495  0.00  0.00    +0.255 HD
ATOM      9  HE  ARG A   1      -6.389 -22.177 -15.946  0.00  0.00    +0.259 HD
ENDROOT
BRANCH   1  10
ATOM     10  CD  ARG A   1      -5.788 -20.611 -14.522  0.00  0.00    +0.174 C 
BRANCH  10  11
ATOM     11  CG  ARG A   1      -5.069 -20.037 -15.733  0.00  0.00    +0.045 C 
BRANCH  11  12
ATOM     12  CB  ARG A   1      -4.385 -18.724 -15.361  0.00  0.00    +0.029 C 
BRANCH  12  13
ATOM     13  CA  ARG A   1      -3.809 -17.992 -16.578  0.00  0.00    +0.133 C 
BRANCH  13  14
ATOM     14  N   ARG A   1      -2.618 -18.693 -17.087  0.00  0.00    -0.239 NA
ATOM     15  H   ARG A   1      -2.323 -19.594 -16.660  0.00  0.00    +0.142 HD
ENDBRANCH  13  14
BRANCH  13  16
ATOM     16  C   ARG A   1      -3.522 -16.567 -16.176  0.00  0.00    +0.224 C 
ATOM     17  O   ARG A   1      -2.498 -16.336 -15.493  0.00  0.00    -0.287 OA
ENDBRANCH  13  16
ENDBRANCH  12  13
ENDBRANCH  11  12
ENDBRANCH  10  11
ENDBRANCH   1  10
TORSDOF 6
REMARK  Name = ../refined-set-2016/3nu6/3nu6_pocket.pdb
REMARK  238 active torsions:
REMARK  status: ('A' for Active; 'I' for Inactive)
REMARK    1  A    between atoms: _1  and  _3
REMARK    2  A    between atoms: _3  and  _4
REMARK    3  A    between atoms: _3  and  _6
REMARK    4  A    between atoms: _6  and  _7
REMARK    5  A    between atoms: _7  and  _8
REMARK    6  A    between atoms: _8  and  _9
REMARK    7  A    between atoms: _18  and  _20
REMARK    8  A    between atoms: _20  and  _21
REMARK    9  A    between atoms: _20  and  _23
REMARK   10  A    between atoms: _23  and  _24
REMARK   11  A    between atoms: _27  and  _29
REMARK   12  A    between atoms: _29  and  _30
REMARK   13  A    between atoms: _29  and  _32
REMARK   14  A    between atoms: _32  and  _33
REMARK   15  A    between atoms: _36  and  _38
REMARK   16  A    between atoms: _38  and  _39
REMARK   17  A    between atoms: _38  and  _41
REMARK   18  A    between atoms: _41  and  _42
REMARK   19  A    between atoms: _45  and  _47
REMARK   20  A    between atoms: _47  and  _48
REMARK   21  A    between atoms: _47  and  _50
REMARK   22  A    between atoms: _50  and  _51
REMARK   23  A    between atoms: _54  and  _56
REMARK   24  A    between atoms: _56  and  _57
REMARK   25  A    between atoms: _59  and  _61
REMARK   26  A    between atoms: _61  and  _62
REMARK   27  A    between atoms: _65  and  _67
REMARK   28  A    between atoms: _67  and  _68
REMARK   29  A    between atoms: _67  and  _70
REMARK   30  A    between atoms: _70  and  _71
REMARK   31  A    between atoms: _74  and  _76
REMARK   32  A    between atoms: _76  and  _77
REMARK   33  A    between atoms: _76  and  _79
REMARK   34  A    between atoms: _79  and  _80
REMARK   35  A    between atoms: _83  and  _85
REMARK   36  A    between atoms: _85  and  _86
REMARK   37  A    between atoms: _85  and  _88
REMARK   38  A    between atoms: _88  and  _89
REMARK   39  A    between atoms: _92  and  _94
REMARK   40  A    between atoms: _94  and  _95
REMARK   41  A    between atoms: _94  and  _97
REMARK   42  A    between atoms: _100  and  _102
REMARK   43  A    between atoms: _102  and  _103
REMARK   44  A    between atoms: _102  and  _105
REMARK   45  A    between atoms: _106  and  _107
REMARK   46  A    between atoms: _107  and  _108
REMARK   47  A    between atoms: _108  and  _109
REMARK   48  A    between atoms: _113  and  _115
REMARK   49  A    between atoms: _115  and  _116
REMARK   50  A    between atoms: _115  and  _118
REMARK   51  A    between atoms: _118  and  _119
REMARK   52  A    between atoms: _119  and  _120
REMARK   53  A    between atoms: _122  and  _124
REMARK   54  A    between atoms: _124  and  _125
REMARK   55  A    between atoms: _124  and  _127
REMARK   56  A    between atoms: _127  and  _128
REMARK   57  A    between atoms: _131  and  _133
REMARK   58  A    between atoms: _133  and  _134
REMARK   59  A    between atoms: _136  and  _138
REMARK   60  A    between atoms: _138  and  _139
REMARK   61  A    between atoms: _141  and  _143
REMARK   62  A    between atoms: _143  and  _144
REMARK   63  A    between atoms: _143  and  _146
REMARK   64  A    between atoms: _146  and  _147
REMARK   65  A    between atoms: _150  and  _152
REMARK   66  A    between atoms: _152  and  _153
REMARK   67  A    between atoms: _155  and  _157
REMARK   68  A    between atoms: _157  and  _158
REMARK   69  A    between atoms: _160  and  _162
REMARK   70  A    between atoms: _162  and  _163
REMARK   71  A    between atoms: _162  and  _165
REMARK   72  A    between atoms: _165  and  _166
REMARK   73  A    between atoms: _172  and  _174
REMARK   74  A    between atoms: _174  and  _175
REMARK   75  A    between atoms: _174  and  _177
REMARK   76  A    between atoms: _177  and  _178
REMARK   77  A    between atoms: _178  and  _179
REMARK   78  A    between atoms: _181  and  _183
REMARK   79  A    between atoms: _183  and  _184
REMARK   80  A    between atoms: _183  and  _186
REMARK   81  A    between atoms: _189  and  _191
REMARK   82  A    between atoms: _191  and  _192
REMARK   83  A    between atoms: _191  and  _194
REMARK   84  A    between atoms: _194  and  _195
REMARK   85  A    between atoms: _199  and  _200
REMARK   86  A    between atoms: _205  and  _207
REMARK   87  A    between atoms: _207  and  _208
REMARK   88  A    between atoms: _207  and  _210
REMARK   89  A    between atoms: _210  and  _211
REMARK   90  A    between atoms: _215  and  _216
REMARK   91  A    between atoms: _221  and  _223
REMARK   92  A    between atoms: _223  and  _224
REMARK   93  A    between atoms: _223  and  _226
REMARK   94  A    between atoms: _229  and  _231
REMARK   95  A    between atoms: _231  and  _232
REMARK   96  A    between atoms: _231  and  _234
REMARK   97  A    between atoms: _234  and  _235
REMARK   98  A    between atoms: _240  and  _242
REMARK   99  A    between atoms: _242  and  _243
REMARK  100  A    between atoms: _242  and  _245
REMARK  101  A    between atoms: _245  and  _246
REMARK  102  A    between atoms: _249  and  _251
REMARK  103  A    between atoms: _251  and  _252
REMARK  104  A    between atoms: _251  and  _254
REMARK  105  A    between atoms: _254  and  _255
REMARK  106  A    between atoms: _258  and  _260
REMARK  107  A    between atoms: _260  and  _261
REMARK  108  A    between atoms: _263  and  _265
REMARK  109  A    between atoms: _265  and  _266
REMARK  110  A    between atoms: _265  and  _268
REMARK  111  A    between atoms: _268  and  _269
REMARK  112  A    between atoms: _269  and  _270
REMARK  113  A    between atoms: _270  and  _271
REMARK  114  A    between atoms: _280  and  _282
REMARK  115  A    between atoms: _282  and  _283
REMARK  116  A    between atoms: _282  and  _285
REMARK  117  A    between atoms: _285  and  _286
REMARK  118  A    between atoms: _291  and  _293
REMARK  119  A    between atoms: _293  and  _294
REMARK  120  A    between atoms: _293  and  _296
REMARK  121  A    between atoms: _296  and  _297
REMARK  122  A    between atoms: _297  and  _298
REMARK  123  A    between atoms: _298  and  _299
REMARK  124  A    between atoms: _308  and  _310
REMARK  125  A    between atoms: _310  and  _311
REMARK  126  A    between atoms: _310  and  _313
REMARK  127  A    between atoms: _313  and  _314
REMARK  128  A    between atoms: _317  and  _319
REMARK  129  A    between atoms: _319  and  _320
REMARK  130  A    between atoms: _319  and  _322
REMARK  131  A    between atoms: _322  and  _323
REMARK  132  A    between atoms: _326  and  _328
REMARK  133  A    between atoms: _328  and  _329
REMARK  134  A    between atoms: _328  and  _331
REMARK  135  A    between atoms: _331  and  _332
REMARK  136  A    between atoms: _335  and  _337
REMARK  137  A    between atoms: _337  and  _338
REMARK  138  A    between atoms: _337  and  _340
REMARK  139  A    between atoms: _340  and  _341
REMARK  140  A    between atoms: _344  and  _346
REMARK  141  A    between atoms: _346  and  _347
REMARK  142  A    between atoms: _349  and  _351
REMARK  143  A    between atoms: _351  and  _352
REMARK  144  A    between atoms: _355  and  _357
REMARK  145  A    between atoms: _357  and  _358
REMARK  146  A    between atoms: _357  and  _360
REMARK  147  A    between atoms: _360  and  _361
REMARK  148  A    between atoms: _364  and  _366
REMARK  149  A    between atoms: _366  and  _367
REMARK  150  A    between atoms: _366  and  _369
REMARK  151  A    between atoms: _369  and  _370
REMARK  152  A    between atoms: _373  and  _375
REMARK  153  A    between atoms: _375  and  _376
REMARK  154  A    between atoms: _375  and  _378
REMARK  155  A    between atoms: _378  and  _379
REMARK  156  A    between atoms: _382  and  _384
REMARK  157  A    between atoms: _384  and  _385
REMARK  158  A    between atoms: _384  and  _387
REMARK  159  A    between atoms: _390  and  _392
REMARK  160  A    between atoms: _392  and  _393
REMARK  161  A    between atoms: _392  and  _395
REMARK  162  A    between atoms: _395  and  _396
REMARK  163  A    between atoms: _399  and  _401
REMARK  164  A    between atoms: _401  and  _402
REMARK  165  A    between atoms: _401  and  _404
REMARK  166  A    between atoms: _404  and  _405
REMARK  167  A    between atoms: _405  and  _406
REMARK  168  A    between atoms: _406  and  _407
REMARK  169  A    between atoms: _407  and  _408
REMARK  170  A    between atoms: _412  and  _414
REMARK  171  A    between atoms: _414  and  _415
REMARK  172  A    between atoms: _414  and  _417
REMARK  173  A    between atoms: _417  and  _418
REMARK  174  A    between atoms: _418  and  _419
REMARK  175  A    between atoms: _421  and  _423
REMARK  176  A    between atoms: _423  and  _424
REMARK  177  A    between atoms: _423  and  _426
REMARK  178  A    between atoms: _426  and  _427
REMARK  179  A    between atoms: _430  and  _432
REMARK  180  A    between atoms: _432  and  _433
REMARK  181  A    between atoms: _435  and  _437
REMARK  182  A    between atoms: _437  and  _438
REMARK  183  A    between atoms: _440  and  _442
REMARK  184  A    between atoms: _442  and  _443
REMARK  185  A    between atoms: _442  and  _445
REMARK  186  A    between atoms: _445  and  _446
REMARK  187  A    between atoms: _449  and  _451
REMARK  188  A    between atoms: _451  and  _452
REMARK  189  A    between atoms: _454  and  _456
REMARK  190  A    between atoms: _456  and  _457
REMARK  191  A    between atoms: _459  and  _461
REMARK  192  A    between atoms: _461  and  _462
REMARK  193  A    between atoms: _461  and  _464
REMARK  194  A    between atoms: _464  and  _465
REMARK  195  A    between atoms: _471  and  _473
REMARK  196  A    between atoms: _473  and  _474
REMARK  197  A    between atoms: _473  and  _476
REMARK  198  A    between atoms: _476  and  _477
REMARK  199  A    between atoms: _477  and  _478
REMARK  200  A    between atoms: _480  and  _482
REMARK  201  A    between atoms: _482  and  _483
REMARK  202  A    between atoms: _482  and  _485
REMARK  203  A    between atoms: _488  and  _490
REMARK  204  A    between atoms: _490  and  _491
REMARK  205  A    between atoms: _490  and  _493
REMARK  206  A    between atoms: _493  and  _494
REMARK  207  A    between atoms: _497  and  _499
REMARK  208  A    between atoms: _499  and  _500
REMARK  209  A    between atoms: _499  and  _502
REMARK  210  A    between atoms: _502  and  _503
REMARK  211  A    between atoms: _507  and  _508
REMARK  212  A    between atoms: _513  and  _515
REMARK  213  A    between atoms: _515  and  _516
REMARK  214  A    between atoms: _515  and  _518
REMARK  215  A    between atoms: _521  and  _523
REMARK  216  A    between atoms: _523  and  _524
REMARK  217  A    between atoms: _523  and  _526
REMARK  218  A    between atoms: _526  and  _527
REMARK  219  A    between atoms: _532  and  _534
REMARK  220  A    between atoms: _534  and  _535
REMARK  221  A    between atoms: _534  and  _537
REMARK  222  A    between atoms: _537  and  _538
REMARK  223  A    between atoms: _541  and  _543
REMARK  224  A    between atoms: _543  and  _544
REMARK  225  A    between atoms: _543  and  _546
REMARK  226  A    between atoms: _546  and  _547
REMARK  227  A    between atoms: _550  and  _552
REMARK  228  A    between atoms: _552  and  _553
REMARK  229  A    between atoms: _555  and  _557
REMARK  230  A    between atoms: _557  and  _558
REMARK  231  A    between atoms: _557  and  _560
REMARK  232  A    between atoms: _560  and  _561
REMARK  233  A    between atoms: _561  and  _562
REMARK  234  A    between atoms: _562  and  _563
REMARK  235  A    between atoms: _572  and  _574
REMARK  236  A    between atoms: _574  and  _575
REMARK  237  A    between atoms: _574  and  _577
REMARK  238  A    between atoms: _577  and  _578
REMARK                            x       y       z     vdW  Elec       q    Type
REMARK                         _______ _______ _______ _____ _____    ______ ____
ROOT
ATOM      1  C   GLY A   5     -16.869 -14.560 -19.545  0.00  0.00    +0.243 C 
ATOM      2  N   ALA A   6     -16.560 -13.915 -18.451  0.00  0.00    -0.297 N 
ATOM      3  H   ALA A   6     -15.634 -13.445 -18.396  0.00  0.00    +0.150 HD
ATOM      4  O   GLY A   5     -17.974 -15.137 -19.727  0.00  0.00    -0.273 OA
ENDROOT
BRANCH   2   5
ATOM      5  CA  ALA A   6     -17.465 -13.824 -17.292  0.00  0.00    +0.149 C 
ATOM      6  CB  ALA A   6     -16.679 -13.912 -16.002  0.00  0.00    +0.031 C 
BRANCH   5   7
ATOM      7  C   ALA A   6     -18.205 -12.504 -17.344  0.00  0.00    +0.241 C 
ATOM      8  N   ASP A   7     -19.538 -12.474 -17.363  0.00  0.00    -0.297 N 
ATOM      9  H   ASP A   7     -20.062 -13.372 -17.383  0.00  0.00    +0.150 HD
ATOM     10  O   ALA A   6     -17.538 -11.439 -17.369  0.00  0.00    -0.273 OA
BRANCH   8  11
ATOM     11  CA  ASP A   7     -20.268 -11.246 -17.357  0.00  0.00    +0.160 C 
BRANCH  11  12
ATOM     12  C   ASP A   7     -20.037 -10.437 -16.067  0.00  0.00    +0.241 C 
ATOM     13  N   ASP A   8     -20.014 -11.139 -14.934  0.00  0.00    -0.297 N 
ATOM     14  H   ASP A   8     -20.081 -12.176 -14.985  0.00  0.00    +0.150 HD
ATOM     15  O   ASP A   7     -19.895  -9.216 -16.078  0.00  0.00    -0.273 OA
BRANCH  13  16
ATOM     16  CA  ASP A   8     -19.899 -10.508 -13.628  0.00  0.00    +0.160 C 
BRANCH  16  17
ATOM     17  C   ASP A   8     -18.806 -11.201 -12.842  0.00  0.00    +0.241 C 
ATOM     18  N   THR A   9     -18.296 -10.540 -11.854  0.00  0.00    -0.295 N 
ATOM     19  H   THR A   9     -18.702  -9.595 -11.703  0.00  0.00    +0.150 HD
ATOM     20  O   ASP A   8     -18.424 -12.342 -13.052  0.00  0.00    -0.273 OA
BRANCH  18  21
ATOM     21  CA  THR A   9     -17.268 -10.902 -10.942  0.00  0.00    +0.176 C 
BRANCH  21  22
ATOM     22  C   THR A   9     -17.831 -11.891  -9.921  0.00  0.00    +0.243 C 
ATOM     23  O   THR A   9     -18.917 -11.662  -9.394  0.00  0.00    -0.273 OA
ATOM     24  N   VAL A  10     -17.095 -12.981  -9.680  0.00  0.00    -0.298 N 
ATOM     25  H   VAL A  10     -16.187 -13.078 -10.178  0.00  0.00    +0.150 HD
BRANCH  24  26
ATOM     26  CA  VAL A  10     -17.489 -14.041  -8.761  0.00  0.00    +0.137 C 
BRANCH  26  27
ATOM     27  CB  VAL A  10     -17.941 -15.322  -9.475  0.00  0.00    +0.026 C 
ATOM     28  CG2 VAL A  10     -18.570 -16.274  -8.383  0.00  0.00    +0.002 C 
ATOM     29  CG1 VAL A  10     -18.854 -15.096 -10.616  0.00  0.00    +0.002 C 
ENDBRANCH  26  27
BRANCH  26  30
ATOM     30  C   VAL A  10     -16.288 -14.371  -7.852  0.00  0.00    +0.227 C 
ATOM     31  O   VAL A  10     -15.234 -14.716  -8.335  0.00  0.00    -0.286 OA
ENDBRANCH  26  30
ENDBRANCH  24  26
ENDBRANCH  21  22
BRANCH  21  32
ATOM     32  CB  THR A   9     -16.730  -9.631 -10.285  0.00  0.00    +0.137 C 
ATOM     33  CG2 THR A   9     -15.766  -9.927  -9.163  0.00  0.00    +0.034 C 
BRANCH  32  34
ATOM     34  OG1 THR A   9     -15.966  -8.877 -11.249  0.00  0.00    -0.382 OA
ATOM     35  HG1 THR A   9     -15.618  -8.054 -10.822  0.00  0.00    +0.210 HD
ENDBRANCH  32  34
ENDBRANCH  21  32
ENDBRANCH  18  21
ENDBRANCH  16  17
BRANCH  16  36
ATOM     36  CB  ASP A   8     -21.200 -10.487 -12.835  0.00  0.00    +0.143 C 
BRANCH  36  37
ATOM     37  CG  ASP A   8     -22.199  -9.572 -13.570  0.00  0.00    +0.367 C 
ATOM     38  OD2 ASP A   8     -22.047  -8.320 -13.513  0.00  0.00    -0.246 OA
ATOM     39  OD1 ASP A   8     -23.087 -10.134 -14.226  0.00  0.00    -0.246 OA
ENDBRANCH  36  37
ENDBRANCH  16  36
ENDBRANCH  13  16
ENDBRANCH  11  12
BRANCH  11  40
ATOM     40  CB  ASP A   7     -21.779 -11.509 -17.503  0.00  0.00    +0.143 C 
BRANCH  40  41
ATOM     41  CG  ASP A   7     -22.206 -12.097 -18.837  0.00  0.00    +0.367 C 
ATOM     42  OD2 ASP A   7     -23.295 -12.767 -18.828  0.00  0.00    -0.246 OA
ATOM     43  OD1 ASP A   7     -21.533 -11.976 -19.878  0.00  0.00    -0.246 OA
ENDBRANCH  40  41
ENDBRANCH  11  40
ENDBRANCH   8  11
ENDBRANCH   5   7
ENDBRANCH   2   5
BRANCH   1  44
ATOM     44  CA  GLY A   5     -15.855 -14.617 -20.670  0.00  0.00    +0.176 C 
BRANCH  44  46
ATOM     45  C   THR A   4     -14.647 -12.521 -20.762  0.00  0.00    +0.243 C 
ATOM     46  N   GLY A   5     -14.653 -13.798 -20.461  0.00  0.00    -0.295 N 
ATOM     47  H   GLY A   5     -13.795 -14.237 -20.069  0.00  0.00    +0.150 HD
ATOM     48  O   THR A   4     -15.586 -11.927 -21.300  0.00  0.00    -0.273 OA
BRANCH  45  49
ATOM     49  CA  THR A   4     -13.417 -11.687 -20.446  0.00  0.00    +0.176 C 
BRANCH  49  52
ATOM     50  C   ASP A   3     -12.925 -12.505 -18.179  0.00  0.00    +0.241 C 
ATOM     51  O   ASP A   3     -14.004 -12.125 -17.816  0.00  0.00    -0.273 OA
ATOM     52  N   THR A   4     -12.607 -12.330 -19.465  0.00  0.00    -0.295 N 
ATOM     53  H   THR A   4     -11.685 -12.696 -19.778  0.00  0.00    +0.150 HD
BRANCH  50  54
ATOM     54  CA  ASP A   3     -11.917 -13.249 -17.298  0.00  0.00    +0.160 C 
BRANCH  54  56
ATOM     55  C   LEU A   2      -9.815 -12.380 -16.475  0.00  0.00    +0.241 C 
ATOM     56  N   ASP A   3     -11.108 -12.341 -16.474  0.00  0.00    -0.297 N 
ATOM     57  H   ASP A   3     -11.590 -11.645 -15.871  0.00  0.00    +0.150 HD
ATOM     58  O   LEU A   2      -9.109 -12.983 -17.311  0.00  0.00    -0.273 OA
BRANCH  55  59
ATOM     59  CA  LEU A   2      -9.089 -11.687 -15.347  0.00  0.00    +0.149 C 
BRANCH  59  62
ATOM     60  C   LEU A   1      -9.169 -13.339 -13.571  0.00  0.00    +0.238 C 
ATOM     61  O   LEU A   1     -10.341 -13.086 -13.314  0.00  0.00    -0.274 OA
ATOM     62  N   LEU A   2      -8.447 -12.643 -14.456  0.00  0.00    -0.297 N 
ATOM     63  H   LEU A   2      -7.418 -12.786 -14.508  0.00  0.00    +0.150 HD
BRANCH  60  64
ATOM     64  CA  LEU A   1      -8.463 -14.473 -12.834  0.00  0.00    +0.145 C 
BRANCH  64  65
ATOM     65  N   LEU A   1      -8.577 -14.322 -11.371  0.00  0.00    -0.238 NA
ATOM     66  H   LEU A   1      -9.389 -14.771 -10.902  0.00  0.00    +0.142 HD
ENDBRANCH  64  65
BRANCH  64  67
ATOM     67  CB  LEU A   1      -9.119 -15.828 -13.123  0.00  0.00    +0.026 C 
BRANCH  67  68
ATOM     68  CG  LEU A   1      -9.162 -16.398 -14.492  0.00  0.00    +0.002 C 
ATOM     69  CD2 LEU A   1      -9.901 -17.736 -14.501  0.00  0.00    +0.000 C 
ATOM     70  CD1 LEU A   1      -7.731 -16.623 -14.989  0.00  0.00    +0.000 C 
ENDBRANCH  67  68
ENDBRANCH  64  67
ENDBRANCH  60  64
ENDBRANCH  59  62
BRANCH  59  71
ATOM     71  CB  LEU A   2      -8.037 -10.721 -15.888  0.00  0.00    +0.029 C 
BRANCH  71  72
ATOM     72  CG  LEU A   2      -7.191  -9.982 -14.873  0.00  0.00    +0.002 C 
ATOM     73  CD2 LEU A   2      -8.056  -9.134 -13.919  0.00  0.00    +0.000 C 
ATOM     74  CD1 LEU A   2      -6.176  -9.116 -15.591  0.00  0.00    +0.000 C 
ENDBRANCH  71  72
ENDBRANCH  59  71
ENDBRANCH  55  59
ENDBRANCH  54  56
BRANCH  54  75
ATOM     75  CB  ASP A   3     -12.686 -14.230 -16.418  0.00  0.00    +0.143 C 
BRANCH  75  76
ATOM     76  CG  ASP A   3     -13.326 -15.329 -17.193  0.00  0.00    +0.367 C 
ATOM     77  OD2 ASP A   3     -13.874 -16.215 -16.511  0.00  0.00    -0.246 OA
ATOM     78  OD1 ASP A   3     -13.228 -15.248 -18.442  0.00  0.00    -0.246 OA
ENDBRANCH  75  76
ENDBRANCH  54  75
ENDBRANCH  50  54
ENDBRANCH  49  52
BRANCH  49  79
ATOM     79  CB  THR A   4     -12.637 -11.414 -21.744  0.00  0.00    +0.137 C 
ATOM     80  CG2 THR A   4     -11.429 -10.500 -21.494  0.00  0.00    +0.034 C 
BRANCH  79  81
ATOM     81  OG1 THR A   4     -12.182 -12.633 -22.317  0.00  0.00    -0.382 OA
ATOM     82  HG1 THR A   4     -12.960 -13.210 -22.524  0.00  0.00    +0.210 HD
ENDBRANCH  79  81
ENDBRANCH  49  79
ENDBRANCH  45  49
ENDBRANCH  44  46
ENDBRANCH   1  44
TORSDOF 35
REMARK  Name = ../refined-set-2016/3nu6/3nu6_pocket.pdb
REMARK  238 active torsions:
REMARK  status: ('A' for Active; 'I' for Inactive)
REMARK    1  A    between atoms: _1  and  _3
REMARK    2  A    between atoms: _3  and  _4
REMARK    3  A    between atoms: _3  and  _6
REMARK    4  A    between atoms: _6  and  _7
REMARK    5  A    between atoms: _7  and  _8
REMARK    6  A    between atoms: _8  and  _9
REMARK    7  A    between atoms: _18  and  _20
REMARK    8  A    between atoms: _20  and  _21
REMARK    9  A    between atoms: _20  and  _23
REMARK   10  A    between atoms: _23  and  _24
REMARK   11  A    between atoms: _27  and  _29
REMARK   12  A    between atoms: _29  and  _30
REMARK   13  A    between atoms: _29  and  _32
REMARK   14  A    between atoms: _32  and  _33
REMARK   15  A    between atoms: _36  and  _38
REMARK   16  A    between atoms: _38  and  _39
REMARK   17  A    between atoms: _38  and  _41
REMARK   18  A    between atoms: _41  and  _42
REMARK   19  A    between atoms: _45  and  _47
REMARK   20  A    between atoms: _47  and  _48
REMARK   21  A    between atoms: _47  and  _50
REMARK   22  A    between atoms: _50  and  _51
REMARK   23  A    between atoms: _54  and  _56
REMARK   24  A    between atoms: _56  and  _57
REMARK   25  A    between atoms: _59  and  _61
REMARK   26  A    between atoms: _61  and  _62
REMARK   27  A    between atoms: _65  and  _67
REMARK   28  A    between atoms: _67  and  _68
REMARK   29  A    between atoms: _67  and  _70
REMARK   30  A    between atoms: _70  and  _71
REMARK   31  A    between atoms: _74  and  _76
REMARK   32  A    between atoms: _76  and  _77
REMARK   33  A    between atoms: _76  and  _79
REMARK   34  A    between atoms: _79  and  _80
REMARK   35  A    between atoms: _83  and  _85
REMARK   36  A    between atoms: _85  and  _86
REMARK   37  A    between atoms: _85  and  _88
REMARK   38  A    between atoms: _88  and  _89
REMARK   39  A    between atoms: _92  and  _94
REMARK   40  A    between atoms: _94  and  _95
REMARK   41  A    between atoms: _94  and  _97
REMARK   42  A    between atoms: _100  and  _102
REMARK   43  A    between atoms: _102  and  _103
REMARK   44  A    between atoms: _102  and  _105
REMARK   45  A    between atoms: _106  and  _107
REMARK   46  A    between atoms: _107  and  _108
REMARK   47  A    between atoms: _108  and  _109
REMARK   48  A    between atoms: _113  and  _115
REMARK   49  A    between atoms: _115  and  _116
REMARK   50  A    between atoms: _115  and  _118
REMARK   51  A    between atoms: _118  and  _119
REMARK   52  A    between atoms: _119  and  _120
REMARK   53  A    between atoms: _122  and  _124
REMARK   54  A    between atoms: _124  and  _125
REMARK   55  A    between atoms: _124  and  _127
REMARK   56  A    between atoms: _127  and  _128
REMARK   57  A    between atoms: _131  and  _133
REMARK   58  A    between atoms: _133  and  _134
REMARK   59  A    between atoms: _136  and  _138
REMARK   60  A    between atoms: _138  and  _139
REMARK   61  A    between atoms: _141  and  _143
REMARK   62  A    between atoms: _143  and  _144
REMARK   63  A    between atoms: _143  and  _146
REMARK   64  A    between atoms: _146  and  _147
REMARK   65  A    between atoms: _150  and  _152
REMARK   66  A    between atoms: _152  and  _153
REMARK   67  A    between atoms: _155  and  _157
REMARK   68  A    between atoms: _157  and  _158
REMARK   69  A    between atoms: _160  and  _162
REMARK   70  A    between atoms: _162  and  _163
REMARK   71  A    between atoms: _162  and  _165
REMARK   72  A    between atoms: _165  and  _166
REMARK   73  A    between atoms: _172  and  _174
REMARK   74  A    between atoms: _174  and  _175
REMARK   75  A    between atoms: _174  and  _177
REMARK   76  A    between atoms: _177  and  _178
REMARK   77  A    between atoms: _178  and  _179
REMARK   78  A    between atoms: _181  and  _183
REMARK   79  A    between atoms: _183  and  _184
REMARK   80  A    between atoms: _183  and  _186
REMARK   81  A    between atoms: _189  and  _191
REMARK   82  A    between atoms: _191  and  _192
REMARK   83  A    between atoms: _191  and  _194
REMARK   84  A    between atoms: _194  and  _195
REMARK   85  A    between atoms: _199  and  _200
REMARK   86  A    between atoms: _205  and  _207
REMARK   87  A    between atoms: _207  and  _208
REMARK   88  A    between atoms: _207  and  _210
REMARK   89  A    between atoms: _210  and  _211
REMARK   90  A    between atoms: _215  and  _216
REMARK   91  A    between atoms: _221  and  _223
REMARK   92  A    between atoms: _223  and  _224
REMARK   93  A    between atoms: _223  and  _226
REMARK   94  A    between atoms: _229  and  _231
REMARK   95  A    between atoms: _231  and  _232
REMARK   96  A    between atoms: _231  and  _234
REMARK   97  A    between atoms: _234  and  _235
REMARK   98  A    between atoms: _240  and  _242
REMARK   99  A    between atoms: _242  and  _243
REMARK  100  A    between atoms: _242  and  _245
REMARK  101  A    between atoms: _245  and  _246
REMARK  102  A    between atoms: _249  and  _251
REMARK  103  A    between atoms: _251  and  _252
REMARK  104  A    between atoms: _251  and  _254
REMARK  105  A    between atoms: _254  and  _255
REMARK  106  A    between atoms: _258  and  _260
REMARK  107  A    between atoms: _260  and  _261
REMARK  108  A    between atoms: _263  and  _265
REMARK  109  A    between atoms: _265  and  _266
REMARK  110  A    between atoms: _265  and  _268
REMARK  111  A    between atoms: _268  and  _269
REMARK  112  A    between atoms: _269  and  _270
REMARK  113  A    between atoms: _270  and  _271
REMARK  114  A    between atoms: _280  and  _282
REMARK  115  A    between atoms: _282  and  _283
REMARK  116  A    between atoms: _282  and  _285
REMARK  117  A    between atoms: _285  and  _286
REMARK  118  A    between atoms: _291  and  _293
REMARK  119  A    between atoms: _293  and  _294
REMARK  120  A    between atoms: _293  and  _296
REMARK  121  A    between atoms: _296  and  _297
REMARK  122  A    between atoms: _297  and  _298
REMARK  123  A    between atoms: _298  and  _299
REMARK  124  A    between atoms: _308  and  _310
REMARK  125  A    between atoms: _310  and  _311
REMARK  126  A    between atoms: _310  and  _313
REMARK  127  A    between atoms: _313  and  _314
REMARK  128  A    between atoms: _317  and  _319
REMARK  129  A    between atoms: _319  and  _320
REMARK  130  A    between atoms: _319  and  _322
REMARK  131  A    between atoms: _322  and  _323
REMARK  132  A    between atoms: _326  and  _328
REMARK  133  A    between atoms: _328  and  _329
REMARK  134  A    between atoms: _328  and  _331
REMARK  135  A    between atoms: _331  and  _332
REMARK  136  A    between atoms: _335  and  _337
REMARK  137  A    between atoms: _337  and  _338
REMARK  138  A    between atoms: _337  and  _340
REMARK  139  A    between atoms: _340  and  _341
REMARK  140  A    between atoms: _344  and  _346
REMARK  141  A    between atoms: _346  and  _347
REMARK  142  A    between atoms: _349  and  _351
REMARK  143  A    between atoms: _351  and  _352
REMARK  144  A    between atoms: _355  and  _357
REMARK  145  A    between atoms: _357  and  _358
REMARK  146  A    between atoms: _357  and  _360
REMARK  147  A    between atoms: _360  and  _361
REMARK  148  A    between atoms: _364  and  _366
REMARK  149  A    between atoms: _366  and  _367
REMARK  150  A    between atoms: _366  and  _369
REMARK  151  A    between atoms: _369  and  _370
REMARK  152  A    between atoms: _373  and  _375
REMARK  153  A    between atoms: _375  and  _376
REMARK  154  A    between atoms: _375  and  _378
REMARK  155  A    between atoms: _378  and  _379
REMARK  156  A    between atoms: _382  and  _384
REMARK  157  A    between atoms: _384  and  _385
REMARK  158  A    between atoms: _384  and  _387
REMARK  159  A    between atoms: _390  and  _392
REMARK  160  A    between atoms: _392  and  _393
REMARK  161  A    between atoms: _392  and  _395
REMARK  162  A    between atoms: _395  and  _396
REMARK  163  A    between atoms: _399  and  _401
REMARK  164  A    between atoms: _401  and  _402
REMARK  165  A    between atoms: _401  and  _404
REMARK  166  A    between atoms: _404  and  _405
REMARK  167  A    between atoms: _405  and  _406
REMARK  168  A    between atoms: _406  and  _407
REMARK  169  A    between atoms: _407  and  _408
REMARK  170  A    between atoms: _412  and  _414
REMARK  171  A    between atoms: _414  and  _415
REMARK  172  A    between atoms: _414  and  _417
REMARK  173  A    between atoms: _417  and  _418
REMARK  174  A    between atoms: _418  and  _419
REMARK  175  A    between atoms: _421  and  _423
REMARK  176  A    between atoms: _423  and  _424
REMARK  177  A    between atoms: _423  and  _426
REMARK  178  A    between atoms: _426  and  _427
REMARK  179  A    between atoms: _430  and  _432
REMARK  180  A    between atoms: _432  and  _433
REMARK  181  A    between atoms: _435  and  _437
REMARK  182  A    between atoms: _437  and  _438
REMARK  183  A    between atoms: _440  and  _442
REMARK  184  A    between atoms: _442  and  _443
REMARK  185  A    between atoms: _442  and  _445
REMARK  186  A    between atoms: _445  and  _446
REMARK  187  A    between atoms: _449  and  _451
REMARK  188  A    between atoms: _451  and  _452
REMARK  189  A    between atoms: _454  and  _456
REMARK  190  A    between atoms: _456  and  _457
REMARK  191  A    between atoms: _459  and  _461
REMARK  192  A    between atoms: _461  and  _462
REMARK  193  A    between atoms: _461  and  _464
REMARK  194  A    between atoms: _464  and  _465
REMARK  195  A    between atoms: _471  and  _473
REMARK  196  A    between atoms: _473  and  _474
REMARK  197  A    between atoms: _473  and  _476
REMARK  198  A    between atoms: _476  and  _477
REMARK  199  A    between atoms: _477  and  _478
REMARK  200  A    between atoms: _480  and  _482
REMARK  201  A    between atoms: _482  and  _483
REMARK  202  A    between atoms: _482  and  _485
REMARK  203  A    between atoms: _488  and  _490
REMARK  204  A    between atoms: _490  and  _491
REMARK  205  A    between atoms: _490  and  _493
REMARK  206  A    between atoms: _493  and  _494
REMARK  207  A    between atoms: _497  and  _499
REMARK  208  A    between atoms: _499  and  _500
REMARK  209  A    between atoms: _499  and  _502
REMARK  210  A    between atoms: _502  and  _503
REMARK  211  A    between atoms: _507  and  _508
REMARK  212  A    between atoms: _513  and  _515
REMARK  213  A    between atoms: _515  and  _516
REMARK  214  A    between atoms: _515  and  _518
REMARK  215  A    between atoms: _521  and  _523
REMARK  216  A    between atoms: _523  and  _524
REMARK  217  A    between atoms: _523  and  _526
REMARK  218  A    between atoms: _526  and  _527
REMARK  219  A    between atoms: _532  and  _534
REMARK  220  A    between atoms: _534  and  _535
REMARK  221  A    between atoms: _534  and  _537
REMARK  222  A    between atoms: _537  and  _538
REMARK  223  A    between atoms: _541  and  _543
REMARK  224  A    between atoms: _543  and  _544
REMARK  225  A    between atoms: _543  and  _546
REMARK  226  A    between atoms: _546  and  _547
REMARK  227  A    between atoms: _550  and  _552
REMARK  228  A    between atoms: _552  and  _553
REMARK  229  A    between atoms: _555  and  _557
REMARK  230  A    between atoms: _557  and  _558
REMARK  231  A    between atoms: _557  and  _560
REMARK  232  A    between atoms: _560  and  _561
REMARK  233  A    between atoms: _561  and  _562
REMARK  234  A    between atoms: _562  and  _563
REMARK  235  A    between atoms: _572  and  _574
REMARK  236  A    between atoms: _574  and  _575
REMARK  237  A    between atoms: _574  and  _577
REMARK  238  A    between atoms: _577  and  _578
REMARK                            x       y       z     vdW  Elec       q    Type
REMARK                         _______ _______ _______ _____ _____    ______ ____
ROOT
ATOM      1  C   GLY A   5     -21.123 -23.585 -17.796  0.00  0.00    +0.243 C 
ATOM      2  O   GLY A   5     -22.018 -24.419 -17.862  0.00  0.00    -0.273 OA
ATOM      3  N   ILE A   6     -19.859 -23.908 -17.968  0.00  0.00    -0.297 N 
ATOM      4  H   ILE A   6     -19.133 -23.164 -17.949  0.00  0.00    +0.150 HD
ENDROOT
BRANCH   3   5
ATOM      5  CA  ILE A   6     -19.459 -25.307 -18.187  0.00  0.00    +0.149 C 
BRANCH   5   6
ATOM      6  C   ILE A   6     -19.836 -26.100 -16.945  0.00  0.00    +0.241 C 
ATOM      7  O   ILE A   6     -19.497 -25.707 -15.803  0.00  0.00    -0.273 OA
ATOM      8  N   GLY A   7     -20.507 -27.227 -17.141  0.00  0.00    -0.295 N 
ATOM      9  H   GLY A   7     -20.733 -27.519 -18.113  0.00  0.00    +0.150 HD
BRANCH   8  10
ATOM     10  CA  GLY A   7     -20.931 -28.057 -16.044  0.00  0.00    +0.176 C 
BRANCH  10  11
ATOM     11  C   GLY A   7     -22.290 -27.679 -15.499  0.00  0.00    +0.243 C 
ATOM     12  O   GLY A   7     -22.768 -28.471 -14.699  0.00  0.00    -0.273 OA
ATOM     13  N   GLY A   8     -22.918 -26.563 -15.845  0.00  0.00    -0.295 N 
ATOM     14  H   GLY A   8     -22.451 -25.916 -16.512  0.00  0.00    +0.150 HD
BRANCH  13  15
ATOM     15  CA  GLY A   8     -24.221 -26.206 -15.337  0.00  0.00    +0.176 C 
BRANCH  15  16
ATOM     16  C   GLY A   8     -24.152 -24.917 -14.545  0.00  0.00    +0.243 C 
ATOM     17  N   PHE A   9     -24.993 -24.821 -13.515  0.00  0.00    -0.297 N 
ATOM     18  H   PHE A   9     -25.524 -25.669 -13.232  0.00  0.00    +0.150 HD
ATOM     19  O   GLY A   8     -23.394 -23.999 -14.839  0.00  0.00    -0.273 OA
BRANCH  17  20
ATOM     20  CA  PHE A   9     -25.207 -23.586 -12.763  0.00  0.00    +0.153 C 
BRANCH  20  21
ATOM     21  C   PHE A   9     -24.654 -23.631 -11.352  0.00  0.00    +0.241 C 
ATOM     22  O   PHE A   9     -24.516 -24.694 -10.773  0.00  0.00    -0.273 OA
ATOM     23  N   MET A  10     -24.397 -22.448 -10.830  0.00  0.00    -0.298 N 
ATOM     24  H   MET A  10     -24.458 -21.612 -11.446  0.00  0.00    +0.150 HD
BRANCH  23  25
ATOM     25  CA  MET A  10     -24.034 -22.256  -9.443  0.00  0.00    +0.138 C 
BRANCH  25  26
ATOM     26  C   MET A  10     -24.908 -21.166  -8.824  0.00  0.00    +0.227 C 
ATOM     27  O   MET A  10     -25.158 -20.132  -9.437  0.00  0.00    -0.286 OA
ENDBRANCH  25  26
BRANCH  25  28
ATOM     28  CB  MET A  10     -22.563 -21.828  -9.337  0.00  0.00    +0.039 C 
BRANCH  28  29
ATOM     29  CG  MET A  10     -22.048 -21.839  -7.909  0.00  0.00    +0.060 C 
BRANCH  29  30
ATOM     30  SD  MET A  10     -20.270 -21.575  -7.788  0.00  0.00    -0.139 S 
ATOM     31  CE  MET A  10     -20.079 -19.906  -8.387  0.00  0.00    +0.069 C 
ENDBRANCH  29  30
ENDBRANCH  28  29
ENDBRANCH  25  28
ENDBRANCH  23  25
ENDBRANCH  20  21
BRANCH  20  32
ATOM     32  CB  PHE A   9     -26.696 -23.255 -12.719  0.00  0.00    +0.055 C 
BRANCH  32  33
ATOM     33  CG  PHE A   9     -27.279 -22.771 -14.023  0.00  0.00    -0.020 A 
ATOM     34  CD2 PHE A   9     -27.503 -21.413 -14.227  0.00  0.00    -0.004 A 
ATOM     35  CE2 PHE A   9     -27.954 -20.957 -15.440  0.00  0.00    -0.000 A 
ATOM     36  CZ  PHE A   9     -28.277 -21.850 -16.430  0.00  0.00    -0.000 A 
ATOM     37  CE1 PHE A   9     -28.092 -23.198 -16.241  0.00  0.00    -0.000 A 
ATOM     38  CD1 PHE A   9     -27.602 -23.680 -15.028  0.00  0.00    -0.004 A 
ENDBRANCH  32  33
ENDBRANCH  20  32
ENDBRANCH  17  20
ENDBRANCH  15  16
ENDBRANCH  13  15
ENDBRANCH  10  11
ENDBRANCH   8  10
ENDBRANCH   5   6
BRANCH   5  39
ATOM     39  CB  ILE A   6     -17.953 -25.379 -18.471  0.00  0.00    +0.027 C 
ATOM     40  CG2 ILE A   6     -17.379 -26.784 -18.417  0.00  0.00    +0.002 C 
BRANCH  39  41
ATOM     41  CG1 ILE A   6     -17.605 -24.731 -19.786  0.00  0.00    +0.002 C 
ATOM     42  CD1 ILE A   6     -18.107 -25.323 -21.019  0.00  0.00    +0.000 C 
ENDBRANCH  39  41
ENDBRANCH   5  39
ENDBRANCH   3   5
BRANCH   1  43
ATOM     43  CA  GLY A   5     -21.391 -22.123 -17.544  0.00  0.00    +0.176 C 
BRANCH  43  45
ATOM     44  C   GLY A   4     -23.128 -20.760 -16.506  0.00  0.00    +0.243 C 
ATOM     45  N   GLY A   5     -22.607 -21.961 -16.755  0.00  0.00    -0.295 N 
ATOM     46  H   GLY A   5     -23.080 -22.806 -16.376  0.00  0.00    +0.150 HD
ATOM     47  O   GLY A   4     -22.624 -19.720 -16.953  0.00  0.00    -0.273 OA
BRANCH  44  48
ATOM     48  CA  GLY A   4     -24.394 -20.751 -15.702  0.00  0.00    +0.176 C 
BRANCH  48  51
ATOM     49  C   ILE A   3     -24.635 -19.567 -13.588  0.00  0.00    +0.241 C 
ATOM     50  O   ILE A   3     -24.451 -20.589 -12.964  0.00  0.00    -0.273 OA
ATOM     51  N   GLY A   4     -24.595 -19.550 -14.905  0.00  0.00    -0.295 N 
ATOM     52  H   GLY A   4     -24.712 -18.640 -15.395  0.00  0.00    +0.150 HD
BRANCH  49  53
ATOM     53  CA  ILE A   3     -24.997 -18.261 -12.945  0.00  0.00    +0.149 C 
BRANCH  53  55
ATOM     54  C   MET A   2     -27.092 -18.036 -11.723  0.00  0.00    +0.241 C 
ATOM     55  N   ILE A   3     -25.860 -18.529 -11.794  0.00  0.00    -0.297 N 
ATOM     56  H   ILE A   3     -25.502 -19.118 -11.015  0.00  0.00    +0.150 HD
ATOM     57  O   MET A   2     -27.601 -17.291 -12.557  0.00  0.00    -0.273 OA
BRANCH  54  58
ATOM     58  CA  MET A   2     -27.937 -18.455 -10.505  0.00  0.00    +0.149 C 
BRANCH  58  61
ATOM     59  C   LYS A   1     -28.218 -16.817  -8.711  0.00  0.00    +0.243 C 
ATOM     60  O   LYS A   1     -27.536 -17.452  -7.907  0.00  0.00    -0.273 OA
ATOM     61  N   MET A   2     -28.517 -17.250  -9.925  0.00  0.00    -0.297 N 
ATOM     62  H   MET A   2     -29.198 -16.705 -10.492  0.00  0.00    +0.150 HD
BRANCH  59  63
ATOM     63  CA  LYS A   1     -28.746 -15.442  -8.325  0.00  0.00    +0.167 C 
BRANCH  63  64
ATOM     64  N   LYS A   1     -28.886 -15.371  -6.891  0.00  0.00    -0.234 NA
ATOM     65  H   LYS A   1     -28.235 -15.942  -6.315  0.00  0.00    +0.142 HD
ENDBRANCH  63  64
BRANCH  63  66
ATOM     66  CB  LYS A   1     -27.773 -14.347  -8.785  0.00  0.00    -0.005 C 
ATOM     67  CG  LYS A   1     -27.663 -14.131 -10.236  0.00  0.00    -0.031 C 
BRANCH  67  68
ATOM     68  CD  LYS A   1     -26.711 -13.046 -10.654  0.00  0.00    +0.002 C 
BRANCH  68  69
ATOM     69  CE  LYS A   1     -26.617 -12.898 -12.134  0.00  0.00    -0.081 C 
BRANCH  69  70
ATOM     70  NZ  LYS A   1     -27.713 -12.122 -12.717  0.00  0.00    +0.381 N 
ATOM     71  HZ1 LYS A   1     -27.715 -11.166 -12.308  0.00  0.00    -0.089 HD
ATOM     72  HZ2 LYS A   1     -28.617 -12.591 -12.508  0.00  0.00    -0.089 HD
ATOM     73  HZ3 LYS A   1     -27.583 -12.060 -13.747  0.00  0.00    -0.089 HD
ENDBRANCH  69  70
ENDBRANCH  68  69
ENDBRANCH  67  68
ENDBRANCH  63  66
ENDBRANCH  59  63
ENDBRANCH  58  61
BRANCH  58  74
ATOM     74  CB  MET A   2     -29.013 -19.445 -10.967  0.00  0.00    +0.041 C 
BRANCH  74  75
ATOM     75  CG  MET A   2     -29.739 -20.091  -9.819  0.00  0.00    +0.060 C 
BRANCH  75  76
ATOM     76  SD  MET A   2     -28.814 -21.509  -9.230  0.00  0.00    -0.139 S 
ATOM     77  CE  MET A   2     -29.551 -22.818 -10.298  0.00  0.00    +0.069 C 
ENDBRANCH  75  76
ENDBRANCH  74  75
ENDBRANCH  58  74
ENDBRANCH  54  58
ENDBRANCH  53  55
BRANCH  53  78
ATOM     78  CB  ILE A   3     -23.750 -17.473 -12.560  0.00  0.00    +0.027 C 
ATOM     79  CG2 ILE A   3     -24.144 -16.039 -12.195  0.00  0.00    +0.002 C 
BRANCH  78  80
ATOM     80  CG1 ILE A   3     -22.890 -18.147 -11.504  0.00  0.00    +0.002 C 
ATOM     81  CD1 ILE A   3     -21.543 -17.432 -11.265  0.00  0.00    +0.000 C 
ENDBRANCH  78  80
ENDBRANCH  53  78
ENDBRANCH  49  53
ENDBRANCH  48  51
ENDBRANCH  44  48
ENDBRANCH  43  45
ENDBRANCH   1  43
TORSDOF 36
REMARK  Name = ../refined-set-2016/3nu6/3nu6_pocket.pdb
REMARK  238 active torsions:
REMARK  status: ('A' for Active; 'I' for Inactive)
REMARK    1  A    between atoms: _1  and  _3
REMARK    2  A    between atoms: _3  and  _4
REMARK    3  A    between atoms: _3  and  _6
REMARK    4  A    between atoms: _6  and  _7
REMARK    5  A    between atoms: _7  and  _8
REMARK    6  A    between atoms: _8  and  _9
REMARK    7  A    between atoms: _18  and  _20
REMARK    8  A    between atoms: _20  and  _21
REMARK    9  A    between atoms: _20  and  _23
REMARK   10  A    between atoms: _23  and  _24
REMARK   11  A    between atoms: _27  and  _29
REMARK   12  A    between atoms: _29  and  _30
REMARK   13  A    between atoms: _29  and  _32
REMARK   14  A    between atoms: _32  and  _33
REMARK   15  A    between atoms: _36  and  _38
REMARK   16  A    between atoms: _38  and  _39
REMARK   17  A    between atoms: _38  and  _41
REMARK   18  A    between atoms: _41  and  _42
REMARK   19  A    between atoms: _45  and  _47
REMARK   20  A    between atoms: _47  and  _48
REMARK   21  A    between atoms: _47  and  _50
REMARK   22  A    between atoms: _50  and  _51
REMARK   23  A    between atoms: _54  and  _56
REMARK   24  A    between atoms: _56  and  _57
REMARK   25  A    between atoms: _59  and  _61
REMARK   26  A    between atoms: _61  and  _62
REMARK   27  A    between atoms: _65  and  _67
REMARK   28  A    between atoms: _67  and  _68
REMARK   29  A    between atoms: _67  and  _70
REMARK   30  A    between atoms: _70  and  _71
REMARK   31  A    between atoms: _74  and  _76
REMARK   32  A    between atoms: _76  and  _77
REMARK   33  A    between atoms: _76  and  _79
REMARK   34  A    between atoms: _79  and  _80
REMARK   35  A    between atoms: _83  and  _85
REMARK   36  A    between atoms: _85  and  _86
REMARK   37  A    between atoms: _85  and  _88
REMARK   38  A    between atoms: _88  and  _89
REMARK   39  A    between atoms: _92  and  _94
REMARK   40  A    between atoms: _94  and  _95
REMARK   41  A    between atoms: _94  and  _97
REMARK   42  A    between atoms: _100  and  _102
REMARK   43  A    between atoms: _102  and  _103
REMARK   44  A    between atoms: _102  and  _105
REMARK   45  A    between atoms: _106  and  _107
REMARK   46  A    between atoms: _107  and  _108
REMARK   47  A    between atoms: _108  and  _109
REMARK   48  A    between atoms: _113  and  _115
REMARK   49  A    between atoms: _115  and  _116
REMARK   50  A    between atoms: _115  and  _118
REMARK   51  A    between atoms: _118  and  _119
REMARK   52  A    between atoms: _119  and  _120
REMARK   53  A    between atoms: _122  and  _124
REMARK   54  A    between atoms: _124  and  _125
REMARK   55  A    between atoms: _124  and  _127
REMARK   56  A    between atoms: _127  and  _128
REMARK   57  A    between atoms: _131  and  _133
REMARK   58  A    between atoms: _133  and  _134
REMARK   59  A    between atoms: _136  and  _138
REMARK   60  A    between atoms: _138  and  _139
REMARK   61  A    between atoms: _141  and  _143
REMARK   62  A    between atoms: _143  and  _144
REMARK   63  A    between atoms: _143  and  _146
REMARK   64  A    between atoms: _146  and  _147
REMARK   65  A    between atoms: _150  and  _152
REMARK   66  A    between atoms: _152  and  _153
REMARK   67  A    between atoms: _155  and  _157
REMARK   68  A    between atoms: _157  and  _158
REMARK   69  A    between atoms: _160  and  _162
REMARK   70  A    between atoms: _162  and  _163
REMARK   71  A    between atoms: _162  and  _165
REMARK   72  A    between atoms: _165  and  _166
REMARK   73  A    between atoms: _172  and  _174
REMARK   74  A    between atoms: _174  and  _175
REMARK   75  A    between atoms: _174  and  _177
REMARK   76  A    between atoms: _177  and  _178
REMARK   77  A    between atoms: _178  and  _179
REMARK   78  A    between atoms: _181  and  _183
REMARK   79  A    between atoms: _183  and  _184
REMARK   80  A    between atoms: _183  and  _186
REMARK   81  A    between atoms: _189  and  _191
REMARK   82  A    between atoms: _191  and  _192
REMARK   83  A    between atoms: _191  and  _194
REMARK   84  A    between atoms: _194  and  _195
REMARK   85  A    between atoms: _199  and  _200
REMARK   86  A    between atoms: _205  and  _207
REMARK   87  A    between atoms: _207  and  _208
REMARK   88  A    between atoms: _207  and  _210
REMARK   89  A    between atoms: _210  and  _211
REMARK   90  A    between atoms: _215  and  _216
REMARK   91  A    between atoms: _221  and  _223
REMARK   92  A    between atoms: _223  and  _224
REMARK   93  A    between atoms: _223  and  _226
REMARK   94  A    between atoms: _229  and  _231
REMARK   95  A    between atoms: _231  and  _232
REMARK   96  A    between atoms: _231  and  _234
REMARK   97  A    between atoms: _234  and  _235
REMARK   98  A    between atoms: _240  and  _242
REMARK   99  A    between atoms: _242  and  _243
REMARK  100  A    between atoms: _242  and  _245
REMARK  101  A    between atoms: _245  and  _246
REMARK  102  A    between atoms: _249  and  _251
REMARK  103  A    between atoms: _251  and  _252
REMARK  104  A    between atoms: _251  and  _254
REMARK  105  A    between atoms: _254  and  _255
REMARK  106  A    between atoms: _258  and  _260
REMARK  107  A    between atoms: _260  and  _261
REMARK  108  A    between atoms: _263  and  _265
REMARK  109  A    between atoms: _265  and  _266
REMARK  110  A    between atoms: _265  and  _268
REMARK  111  A    between atoms: _268  and  _269
REMARK  112  A    between atoms: _269  and  _270
REMARK  113  A    between atoms: _270  and  _271
REMARK  114  A    between atoms: _280  and  _282
REMARK  115  A    between atoms: _282  and  _283
REMARK  116  A    between atoms: _282  and  _285
REMARK  117  A    between atoms: _285  and  _286
REMARK  118  A    between atoms: _291  and  _293
REMARK  119  A    between atoms: _293  and  _294
REMARK  120  A    between atoms: _293  and  _296
REMARK  121  A    between atoms: _296  and  _297
REMARK  122  A    between atoms: _297  and  _298
REMARK  123  A    between atoms: _298  and  _299
REMARK  124  A    between atoms: _308  and  _310
REMARK  125  A    between atoms: _310  and  _311
REMARK  126  A    between atoms: _310  and  _313
REMARK  127  A    between atoms: _313  and  _314
REMARK  128  A    between atoms: _317  and  _319
REMARK  129  A    between atoms: _319  and  _320
REMARK  130  A    between atoms: _319  and  _322
REMARK  131  A    between atoms: _322  and  _323
REMARK  132  A    between atoms: _326  and  _328
REMARK  133  A    between atoms: _328  and  _329
REMARK  134  A    between atoms: _328  and  _331
REMARK  135  A    between atoms: _331  and  _332
REMARK  136  A    between atoms: _335  and  _337
REMARK  137  A    between atoms: _337  and  _338
REMARK  138  A    between atoms: _337  and  _340
REMARK  139  A    between atoms: _340  and  _341
REMARK  140  A    between atoms: _344  and  _346
REMARK  141  A    between atoms: _346  and  _347
REMARK  142  A    between atoms: _349  and  _351
REMARK  143  A    between atoms: _351  and  _352
REMARK  144  A    between atoms: _355  and  _357
REMARK  145  A    between atoms: _357  and  _358
REMARK  146  A    between atoms: _357  and  _360
REMARK  147  A    between atoms: _360  and  _361
REMARK  148  A    between atoms: _364  and  _366
REMARK  149  A    between atoms: _366  and  _367
REMARK  150  A    between atoms: _366  and  _369
REMARK  151  A    between atoms: _369  and  _370
REMARK  152  A    between atoms: _373  and  _375
REMARK  153  A    between atoms: _375  and  _376
REMARK  154  A    between atoms: _375  and  _378
REMARK  155  A    between atoms: _378  and  _379
REMARK  156  A    between atoms: _382  and  _384
REMARK  157  A    between atoms: _384  and  _385
REMARK  158  A    between atoms: _384  and  _387
REMARK  159  A    between atoms: _390  and  _392
REMARK  160  A    between atoms: _392  and  _393
REMARK  161  A    between atoms: _392  and  _395
REMARK  162  A    between atoms: _395  and  _396
REMARK  163  A    between atoms: _399  and  _401
REMARK  164  A    between atoms: _401  and  _402
REMARK  165  A    between atoms: _401  and  _404
REMARK  166  A    between atoms: _404  and  _405
REMARK  167  A    between atoms: _405  and  _406
REMARK  168  A    between atoms: _406  and  _407
REMARK  169  A    between atoms: _407  and  _408
REMARK  170  A    between atoms: _412  and  _414
REMARK  171  A    between atoms: _414  and  _415
REMARK  172  A    between atoms: _414  and  _417
REMARK  173  A    between atoms: _417  and  _418
REMARK  174  A    between atoms: _418  and  _419
REMARK  175  A    between atoms: _421  and  _423
REMARK  176  A    between atoms: _423  and  _424
REMARK  177  A    between atoms: _423  and  _426
REMARK  178  A    between atoms: _426  and  _427
REMARK  179  A    between atoms: _430  and  _432
REMARK  180  A    between atoms: _432  and  _433
REMARK  181  A    between atoms: _435  and  _437
REMARK  182  A    between atoms: _437  and  _438
REMARK  183  A    between atoms: _440  and  _442
REMARK  184  A    between atoms: _442  and  _443
REMARK  185  A    between atoms: _442  and  _445
REMARK  186  A    between atoms: _445  and  _446
REMARK  187  A    between atoms: _449  and  _451
REMARK  188  A    between atoms: _451  and  _452
REMARK  189  A    between atoms: _454  and  _456
REMARK  190  A    between atoms: _456  and  _457
REMARK  191  A    between atoms: _459  and  _461
REMARK  192  A    between atoms: _461  and  _462
REMARK  193  A    between atoms: _461  and  _464
REMARK  194  A    between atoms: _464  and  _465
REMARK  195  A    between atoms: _471  and  _473
REMARK  196  A    between atoms: _473  and  _474
REMARK  197  A    between atoms: _473  and  _476
REMARK  198  A    between atoms: _476  and  _477
REMARK  199  A    between atoms: _477  and  _478
REMARK  200  A    between atoms: _480  and  _482
REMARK  201  A    between atoms: _482  and  _483
REMARK  202  A    between atoms: _482  and  _485
REMARK  203  A    between atoms: _488  and  _490
REMARK  204  A    between atoms: _490  and  _491
REMARK  205  A    between atoms: _490  and  _493
REMARK  206  A    between atoms: _493  and  _494
REMARK  207  A    between atoms: _497  and  _499
REMARK  208  A    between atoms: _499  and  _500
REMARK  209  A    between atoms: _499  and  _502
REMARK  210  A    between atoms: _502  and  _503
REMARK  211  A    between atoms: _507  and  _508
REMARK  212  A    between atoms: _513  and  _515
REMARK  213  A    between atoms: _515  and  _516
REMARK  214  A    between atoms: _515  and  _518
REMARK  215  A    between atoms: _521  and  _523
REMARK  216  A    between atoms: _523  and  _524
REMARK  217  A    between atoms: _523  and  _526
REMARK  218  A    between atoms: _526  and  _527
REMARK  219  A    between atoms: _532  and  _534
REMARK  220  A    between atoms: _534  and  _535
REMARK  221  A    between atoms: _534  and  _537
REMARK  222  A    between atoms: _537  and  _538
REMARK  223  A    between atoms: _541  and  _543
REMARK  224  A    between atoms: _543  and  _544
REMARK  225  A    between atoms: _543  and  _546
REMARK  226  A    between atoms: _546  and  _547
REMARK  227  A    between atoms: _550  and  _552
REMARK  228  A    between atoms: _552  and  _553
REMARK  229  A    between atoms: _555  and  _557
REMARK  230  A    between atoms: _557  and  _558
REMARK  231  A    between atoms: _557  and  _560
REMARK  232  A    between atoms: _560  and  _561
REMARK  233  A    between atoms: _561  and  _562
REMARK  234  A    between atoms: _562  and  _563
REMARK  235  A    between atoms: _572  and  _574
REMARK  236  A    between atoms: _574  and  _575
REMARK  237  A    between atoms: _574  and  _577
REMARK  238  A    between atoms: _577  and  _578
REMARK                            x       y       z     vdW  Elec       q    Type
REMARK                         _______ _______ _______ _____ _____    ______ ____
ROOT
ATOM      1  CA  VAL A   1     -24.500 -17.211  -5.631  0.00  0.00    +0.133 C 
ENDROOT
BRANCH   1   2
ATOM      2  CB  VAL A   1     -23.590 -16.514  -6.680  0.00  0.00    +0.023 C 
ATOM      3  CG2 VAL A   1     -22.644 -17.428  -7.412  0.00  0.00    +0.002 C 
ATOM      4  CG1 VAL A   1     -24.452 -15.723  -7.669  0.00  0.00    +0.002 C 
ENDBRANCH   1   2
BRANCH   1   5
ATOM      5  N   VAL A   1     -25.345 -18.224  -6.228  0.00  0.00    -0.239 NA
ATOM      6  H   VAL A   1     -26.186 -17.913  -6.756  0.00  0.00    +0.142 HD
ENDBRANCH   1   5
BRANCH   1   7
ATOM      7  C   VAL A   1     -25.368 -16.161  -4.911  0.00  0.00    +0.224 C 
ATOM      8  O   VAL A   1     -26.567 -16.086  -5.111  0.00  0.00    -0.287 OA
ENDBRANCH   1   7
TORSDOF 3
REMARK  Name = ../refined-set-2016/3nu6/3nu6_pocket.pdb
REMARK  238 active torsions:
REMARK  status: ('A' for Active; 'I' for Inactive)
REMARK    1  A    between atoms: _1  and  _3
REMARK    2  A    between atoms: _3  and  _4
REMARK    3  A    between atoms: _3  and  _6
REMARK    4  A    between atoms: _6  and  _7
REMARK    5  A    between atoms: _7  and  _8
REMARK    6  A    between atoms: _8  and  _9
REMARK    7  A    between atoms: _18  and  _20
REMARK    8  A    between atoms: _20  and  _21
REMARK    9  A    between atoms: _20  and  _23
REMARK   10  A    between atoms: _23  and  _24
REMARK   11  A    between atoms: _27  and  _29
REMARK   12  A    between atoms: _29  and  _30
REMARK   13  A    between atoms: _29  and  _32
REMARK   14  A    between atoms: _32  and  _33
REMARK   15  A    between atoms: _36  and  _38
REMARK   16  A    between atoms: _38  and  _39
REMARK   17  A    between atoms: _38  and  _41
REMARK   18  A    between atoms: _41  and  _42
REMARK   19  A    between atoms: _45  and  _47
REMARK   20  A    between atoms: _47  and  _48
REMARK   21  A    between atoms: _47  and  _50
REMARK   22  A    between atoms: _50  and  _51
REMARK   23  A    between atoms: _54  and  _56
REMARK   24  A    between atoms: _56  and  _57
REMARK   25  A    between atoms: _59  and  _61
REMARK   26  A    between atoms: _61  and  _62
REMARK   27  A    between atoms: _65  and  _67
REMARK   28  A    between atoms: _67  and  _68
REMARK   29  A    between atoms: _67  and  _70
REMARK   30  A    between atoms: _70  and  _71
REMARK   31  A    between atoms: _74  and  _76
REMARK   32  A    between atoms: _76  and  _77
REMARK   33  A    between atoms: _76  and  _79
REMARK   34  A    between atoms: _79  and  _80
REMARK   35  A    between atoms: _83  and  _85
REMARK   36  A    between atoms: _85  and  _86
REMARK   37  A    between atoms: _85  and  _88
REMARK   38  A    between atoms: _88  and  _89
REMARK   39  A    between atoms: _92  and  _94
REMARK   40  A    between atoms: _94  and  _95
REMARK   41  A    between atoms: _94  and  _97
REMARK   42  A    between atoms: _100  and  _102
REMARK   43  A    between atoms: _102  and  _103
REMARK   44  A    between atoms: _102  and  _105
REMARK   45  A    between atoms: _106  and  _107
REMARK   46  A    between atoms: _107  and  _108
REMARK   47  A    between atoms: _108  and  _109
REMARK   48  A    between atoms: _113  and  _115
REMARK   49  A    between atoms: _115  and  _116
REMARK   50  A    between atoms: _115  and  _118
REMARK   51  A    between atoms: _118  and  _119
REMARK   52  A    between atoms: _119  and  _120
REMARK   53  A    between atoms: _122  and  _124
REMARK   54  A    between atoms: _124  and  _125
REMARK   55  A    between atoms: _124  and  _127
REMARK   56  A    between atoms: _127  and  _128
REMARK   57  A    between atoms: _131  and  _133
REMARK   58  A    between atoms: _133  and  _134
REMARK   59  A    between atoms: _136  and  _138
REMARK   60  A    between atoms: _138  and  _139
REMARK   61  A    between atoms: _141  and  _143
REMARK   62  A    between atoms: _143  and  _144
REMARK   63  A    between atoms: _143  and  _146
REMARK   64  A    between atoms: _146  and  _147
REMARK   65  A    between atoms: _150  and  _152
REMARK   66  A    between atoms: _152  and  _153
REMARK   67  A    between atoms: _155  and  _157
REMARK   68  A    between atoms: _157  and  _158
REMARK   69  A    between atoms: _160  and  _162
REMARK   70  A    between atoms: _162  and  _163
REMARK   71  A    between atoms: _162  and  _165
REMARK   72  A    between atoms: _165  and  _166
REMARK   73  A    between atoms: _172  and  _174
REMARK   74  A    between atoms: _174  and  _175
REMARK   75  A    between atoms: _174  and  _177
REMARK   76  A    between atoms: _177  and  _178
REMARK   77  A    between atoms: _178  and  _179
REMARK   78  A    between atoms: _181  and  _183
REMARK   79  A    between atoms: _183  and  _184
REMARK   80  A    between atoms: _183  and  _186
REMARK   81  A    between atoms: _189  and  _191
REMARK   82  A    between atoms: _191  and  _192
REMARK   83  A    between atoms: _191  and  _194
REMARK   84  A    between atoms: _194  and  _195
REMARK   85  A    between atoms: _199  and  _200
REMARK   86  A    between atoms: _205  and  _207
REMARK   87  A    between atoms: _207  and  _208
REMARK   88  A    between atoms: _207  and  _210
REMARK   89  A    between atoms: _210  and  _211
REMARK   90  A    between atoms: _215  and  _216
REMARK   91  A    between atoms: _221  and  _223
REMARK   92  A    between atoms: _223  and  _224
REMARK   93  A    between atoms: _223  and  _226
REMARK   94  A    between atoms: _229  and  _231
REMARK   95  A    between atoms: _231  and  _232
REMARK   96  A    between atoms: _231  and  _234
REMARK   97  A    between atoms: _234  and  _235
REMARK   98  A    between atoms: _240  and  _242
REMARK   99  A    between atoms: _242  and  _243
REMARK  100  A    between atoms: _242  and  _245
REMARK  101  A    between atoms: _245  and  _246
REMARK  102  A    between atoms: _249  and  _251
REMARK  103  A    between atoms: _251  and  _252
REMARK  104  A    between atoms: _251  and  _254
REMARK  105  A    between atoms: _254  and  _255
REMARK  106  A    between atoms: _258  and  _260
REMARK  107  A    between atoms: _260  and  _261
REMARK  108  A    between atoms: _263  and  _265
REMARK  109  A    between atoms: _265  and  _266
REMARK  110  A    between atoms: _265  and  _268
REMARK  111  A    between atoms: _268  and  _269
REMARK  112  A    between atoms: _269  and  _270
REMARK  113  A    between atoms: _270  and  _271
REMARK  114  A    between atoms: _280  and  _282
REMARK  115  A    between atoms: _282  and  _283
REMARK  116  A    between atoms: _282  and  _285
REMARK  117  A    between atoms: _285  and  _286
REMARK  118  A    between atoms: _291  and  _293
REMARK  119  A    between atoms: _293  and  _294
REMARK  120  A    between atoms: _293  and  _296
REMARK  121  A    between atoms: _296  and  _297
REMARK  122  A    between atoms: _297  and  _298
REMARK  123  A    between atoms: _298  and  _299
REMARK  124  A    between atoms: _308  and  _310
REMARK  125  A    between atoms: _310  and  _311
REMARK  126  A    between atoms: _310  and  _313
REMARK  127  A    between atoms: _313  and  _314
REMARK  128  A    between atoms: _317  and  _319
REMARK  129  A    between atoms: _319  and  _320
REMARK  130  A    between atoms: _319  and  _322
REMARK  131  A    between atoms: _322  and  _323
REMARK  132  A    between atoms: _326  and  _328
REMARK  133  A    between atoms: _328  and  _329
REMARK  134  A    between atoms: _328  and  _331
REMARK  135  A    between atoms: _331  and  _332
REMARK  136  A    between atoms: _335  and  _337
REMARK  137  A    between atoms: _337  and  _338
REMARK  138  A    between atoms: _337  and  _340
REMARK  139  A    between atoms: _340  and  _341
REMARK  140  A    between atoms: _344  and  _346
REMARK  141  A    between atoms: _346  and  _347
REMARK  142  A    between atoms: _349  and  _351
REMARK  143  A    between atoms: _351  and  _352
REMARK  144  A    between atoms: _355  and  _357
REMARK  145  A    between atoms: _357  and  _358
REMARK  146  A    between atoms: _357  and  _360
REMARK  147  A    between atoms: _360  and  _361
REMARK  148  A    between atoms: _364  and  _366
REMARK  149  A    between atoms: _366  and  _367
REMARK  150  A    between atoms: _366  and  _369
REMARK  151  A    between atoms: _369  and  _370
REMARK  152  A    between atoms: _373  and  _375
REMARK  153  A    between atoms: _375  and  _376
REMARK  154  A    between atoms: _375  and  _378
REMARK  155  A    between atoms: _378  and  _379
REMARK  156  A    between atoms: _382  and  _384
REMARK  157  A    between atoms: _384  and  _385
REMARK  158  A    between atoms: _384  and  _387
REMARK  159  A    between atoms: _390  and  _392
REMARK  160  A    between atoms: _392  and  _393
REMARK  161  A    between atoms: _392  and  _395
REMARK  162  A    between atoms: _395  and  _396
REMARK  163  A    between atoms: _399  and  _401
REMARK  164  A    between atoms: _401  and  _402
REMARK  165  A    between atoms: _401  and  _404
REMARK  166  A    between atoms: _404  and  _405
REMARK  167  A    between atoms: _405  and  _406
REMARK  168  A    between atoms: _406  and  _407
REMARK  169  A    between atoms: _407  and  _408
REMARK  170  A    between atoms: _412  and  _414
REMARK  171  A    between atoms: _414  and  _415
REMARK  172  A    between atoms: _414  and  _417
REMARK  173  A    between atoms: _417  and  _418
REMARK  174  A    between atoms: _418  and  _419
REMARK  175  A    between atoms: _421  and  _423
REMARK  176  A    between atoms: _423  and  _424
REMARK  177  A    between atoms: _423  and  _426
REMARK  178  A    between atoms: _426  and  _427
REMARK  179  A    between atoms: _430  and  _432
REMARK  180  A    between atoms: _432  and  _433
REMARK  181  A    between atoms: _435  and  _437
REMARK  182  A    between atoms: _437  and  _438
REMARK  183  A    between atoms: _440  and  _442
REMARK  184  A    between atoms: _442  and  _443
REMARK  185  A    between atoms: _442  and  _445
REMARK  186  A    between atoms: _445  and  _446
REMARK  187  A    between atoms: _449  and  _451
REMARK  188  A    between atoms: _451  and  _452
REMARK  189  A    between atoms: _454  and  _456
REMARK  190  A    between atoms: _456  and  _457
REMARK  191  A    between atoms: _459  and  _461
REMARK  192  A    between atoms: _461  and  _462
REMARK  193  A    between atoms: _461  and  _464
REMARK  194  A    between atoms: _464  and  _465
REMARK  195  A    between atoms: _471  and  _473
REMARK  196  A    between atoms: _473  and  _474
REMARK  197  A    between atoms: _473  and  _476
REMARK  198  A    between atoms: _476  and  _477
REMARK  199  A    between atoms: _477  and  _478
REMARK  200  A    between atoms: _480  and  _482
REMARK  201  A    between atoms: _482  and  _483
REMARK  202  A    between atoms: _482  and  _485
REMARK  203  A    between atoms: _488  and  _490
REMARK  204  A    between atoms: _490  and  _491
REMARK  205  A    between atoms: _490  and  _493
REMARK  206  A    between atoms: _493  and  _494
REMARK  207  A    between atoms: _497  and  _499
REMARK  208  A    between atoms: _499  and  _500
REMARK  209  A    between atoms: _499  and  _502
REMARK  210  A    between atoms: _502  and  _503
REMARK  211  A    between atoms: _507  and  _508
REMARK  212  A    between atoms: _513  and  _515
REMARK  213  A    between atoms: _515  and  _516
REMARK  214  A    between atoms: _515  and  _518
REMARK  215  A    between atoms: _521  and  _523
REMARK  216  A    between atoms: _523  and  _524
REMARK  217  A    between atoms: _523  and  _526
REMARK  218  A    between atoms: _526  and  _527
REMARK  219  A    between atoms: _532  and  _534
REMARK  220  A    between atoms: _534  and  _535
REMARK  221  A    between atoms: _534  and  _537
REMARK  222  A    between atoms: _537  and  _538
REMARK  223  A    between atoms: _541  and  _543
REMARK  224  A    between atoms: _543  and  _544
REMARK  225  A    between atoms: _543  and  _546
REMARK  226  A    between atoms: _546  and  _547
REMARK  227  A    between atoms: _550  and  _552
REMARK  228  A    between atoms: _552  and  _553
REMARK  229  A    between atoms: _555  and  _557
REMARK  230  A    between atoms: _557  and  _558
REMARK  231  A    between atoms: _557  and  _560
REMARK  232  A    between atoms: _560  and  _561
REMARK  233  A    between atoms: _561  and  _562
REMARK  234  A    between atoms: _562  and  _563
REMARK  235  A    between atoms: _572  and  _574
REMARK  236  A    between atoms: _574  and  _575
REMARK  237  A    between atoms: _574  and  _577
REMARK  238  A    between atoms: _577  and  _578
REMARK                            x       y       z     vdW  Elec       q    Type
REMARK                         _______ _______ _______ _____ _____    ______ ____
ROOT
ATOM      1  CA  LEU A   1     -21.203 -12.385  -6.745  0.00  0.00    +0.133 C 
ENDROOT
BRANCH   1   2
ATOM      2  N   LEU A   1     -20.513 -11.153  -7.058  0.00  0.00    -0.239 NA
ATOM      3  H   LEU A   1     -19.856 -11.143  -7.864  0.00  0.00    +0.142 HD
ENDBRANCH   1   2
BRANCH   1   4
ATOM      4  C   LEU A   1     -20.325 -13.199  -5.817  0.00  0.00    +0.224 C 
ATOM      5  O   LEU A   1     -19.135 -13.254  -6.073  0.00  0.00    -0.287 OA
ENDBRANCH   1   4
BRANCH   1   6
ATOM      6  CB  LEU A   1     -21.543 -13.138  -8.022  0.00  0.00    +0.025 C 
BRANCH   6   7
ATOM      7  CG  LEU A   1     -22.263 -12.319  -9.098  0.00  0.00    +0.002 C 
ATOM      8  CD2 LEU A   1     -23.555 -11.695  -8.613  0.00  0.00    +0.000 C 
ATOM      9  CD1 LEU A   1     -22.511 -13.189 -10.313  0.00  0.00    +0.000 C 
ENDBRANCH   6   7
ENDBRANCH   1   6
TORSDOF 4
REMARK  Name = ../refined-set-2016/3nu6/3nu6_pocket.pdb
REMARK  238 active torsions:
REMARK  status: ('A' for Active; 'I' for Inactive)
REMARK    1  A    between atoms: _1  and  _3
REMARK    2  A    between atoms: _3  and  _4
REMARK    3  A    between atoms: _3  and  _6
REMARK    4  A    between atoms: _6  and  _7
REMARK    5  A    between atoms: _7  and  _8
REMARK    6  A    between atoms: _8  and  _9
REMARK    7  A    between atoms: _18  and  _20
REMARK    8  A    between atoms: _20  and  _21
REMARK    9  A    between atoms: _20  and  _23
REMARK   10  A    between atoms: _23  and  _24
REMARK   11  A    between atoms: _27  and  _29
REMARK   12  A    between atoms: _29  and  _30
REMARK   13  A    between atoms: _29  and  _32
REMARK   14  A    between atoms: _32  and  _33
REMARK   15  A    between atoms: _36  and  _38
REMARK   16  A    between atoms: _38  and  _39
REMARK   17  A    between atoms: _38  and  _41
REMARK   18  A    between atoms: _41  and  _42
REMARK   19  A    between atoms: _45  and  _47
REMARK   20  A    between atoms: _47  and  _48
REMARK   21  A    between atoms: _47  and  _50
REMARK   22  A    between atoms: _50  and  _51
REMARK   23  A    between atoms: _54  and  _56
REMARK   24  A    between atoms: _56  and  _57
REMARK   25  A    between atoms: _59  and  _61
REMARK   26  A    between atoms: _61  and  _62
REMARK   27  A    between atoms: _65  and  _67
REMARK   28  A    between atoms: _67  and  _68
REMARK   29  A    between atoms: _67  and  _70
REMARK   30  A    between atoms: _70  and  _71
REMARK   31  A    between atoms: _74  and  _76
REMARK   32  A    between atoms: _76  and  _77
REMARK   33  A    between atoms: _76  and  _79
REMARK   34  A    between atoms: _79  and  _80
REMARK   35  A    between atoms: _83  and  _85
REMARK   36  A    between atoms: _85  and  _86
REMARK   37  A    between atoms: _85  and  _88
REMARK   38  A    between atoms: _88  and  _89
REMARK   39  A    between atoms: _92  and  _94
REMARK   40  A    between atoms: _94  and  _95
REMARK   41  A    between atoms: _94  and  _97
REMARK   42  A    between atoms: _100  and  _102
REMARK   43  A    between atoms: _102  and  _103
REMARK   44  A    between atoms: _102  and  _105
REMARK   45  A    between atoms: _106  and  _107
REMARK   46  A    between atoms: _107  and  _108
REMARK   47  A    between atoms: _108  and  _109
REMARK   48  A    between atoms: _113  and  _115
REMARK   49  A    between atoms: _115  and  _116
REMARK   50  A    between atoms: _115  and  _118
REMARK   51  A    between atoms: _118  and  _119
REMARK   52  A    between atoms: _119  and  _120
REMARK   53  A    between atoms: _122  and  _124
REMARK   54  A    between atoms: _124  and  _125
REMARK   55  A    between atoms: _124  and  _127
REMARK   56  A    between atoms: _127  and  _128
REMARK   57  A    between atoms: _131  and  _133
REMARK   58  A    between atoms: _133  and  _134
REMARK   59  A    between atoms: _136  and  _138
REMARK   60  A    between atoms: _138  and  _139
REMARK   61  A    between atoms: _141  and  _143
REMARK   62  A    between atoms: _143  and  _144
REMARK   63  A    between atoms: _143  and  _146
REMARK   64  A    between atoms: _146  and  _147
REMARK   65  A    between atoms: _150  and  _152
REMARK   66  A    between atoms: _152  and  _153
REMARK   67  A    between atoms: _155  and  _157
REMARK   68  A    between atoms: _157  and  _158
REMARK   69  A    between atoms: _160  and  _162
REMARK   70  A    between atoms: _162  and  _163
REMARK   71  A    between atoms: _162  and  _165
REMARK   72  A    between atoms: _165  and  _166
REMARK   73  A    between atoms: _172  and  _174
REMARK   74  A    between atoms: _174  and  _175
REMARK   75  A    between atoms: _174  and  _177
REMARK   76  A    between atoms: _177  and  _178
REMARK   77  A    between atoms: _178  and  _179
REMARK   78  A    between atoms: _181  and  _183
REMARK   79  A    between atoms: _183  and  _184
REMARK   80  A    between atoms: _183  and  _186
REMARK   81  A    between atoms: _189  and  _191
REMARK   82  A    between atoms: _191  and  _192
REMARK   83  A    between atoms: _191  and  _194
REMARK   84  A    between atoms: _194  and  _195
REMARK   85  A    between atoms: _199  and  _200
REMARK   86  A    between atoms: _205  and  _207
REMARK   87  A    between atoms: _207  and  _208
REMARK   88  A    between atoms: _207  and  _210
REMARK   89  A    between atoms: _210  and  _211
REMARK   90  A    between atoms: _215  and  _216
REMARK   91  A    between atoms: _221  and  _223
REMARK   92  A    between atoms: _223  and  _224
REMARK   93  A    between atoms: _223  and  _226
REMARK   94  A    between atoms: _229  and  _231
REMARK   95  A    between atoms: _231  and  _232
REMARK   96  A    between atoms: _231  and  _234
REMARK   97  A    between atoms: _234  and  _235
REMARK   98  A    between atoms: _240  and  _242
REMARK   99  A    between atoms: _242  and  _243
REMARK  100  A    between atoms: _242  and  _245
REMARK  101  A    between atoms: _245  and  _246
REMARK  102  A    between atoms: _249  and  _251
REMARK  103  A    between atoms: _251  and  _252
REMARK  104  A    between atoms: _251  and  _254
REMARK  105  A    between atoms: _254  and  _255
REMARK  106  A    between atoms: _258  and  _260
REMARK  107  A    between atoms: _260  and  _261
REMARK  108  A    between atoms: _263  and  _265
REMARK  109  A    between atoms: _265  and  _266
REMARK  110  A    between atoms: _265  and  _268
REMARK  111  A    between atoms: _268  and  _269
REMARK  112  A    between atoms: _269  and  _270
REMARK  113  A    between atoms: _270  and  _271
REMARK  114  A    between atoms: _280  and  _282
REMARK  115  A    between atoms: _282  and  _283
REMARK  116  A    between atoms: _282  and  _285
REMARK  117  A    between atoms: _285  and  _286
REMARK  118  A    between atoms: _291  and  _293
REMARK  119  A    between atoms: _293  and  _294
REMARK  120  A    between atoms: _293  and  _296
REMARK  121  A    between atoms: _296  and  _297
REMARK  122  A    between atoms: _297  and  _298
REMARK  123  A    between atoms: _298  and  _299
REMARK  124  A    between atoms: _308  and  _310
REMARK  125  A    between atoms: _310  and  _311
REMARK  126  A    between atoms: _310  and  _313
REMARK  127  A    between atoms: _313  and  _314
REMARK  128  A    between atoms: _317  and  _319
REMARK  129  A    between atoms: _319  and  _320
REMARK  130  A    between atoms: _319  and  _322
REMARK  131  A    between atoms: _322  and  _323
REMARK  132  A    between atoms: _326  and  _328
REMARK  133  A    between atoms: _328  and  _329
REMARK  134  A    between atoms: _328  and  _331
REMARK  135  A    between atoms: _331  and  _332
REMARK  136  A    between atoms: _335  and  _337
REMARK  137  A    between atoms: _337  and  _338
REMARK  138  A    between atoms: _337  and  _340
REMARK  139  A    between atoms: _340  and  _341
REMARK  140  A    between atoms: _344  and  _346
REMARK  141  A    between atoms: _346  and  _347
REMARK  142  A    between atoms: _349  and  _351
REMARK  143  A    between atoms: _351  and  _352
REMARK  144  A    between atoms: _355  and  _357
REMARK  145  A    between atoms: _357  and  _358
REMARK  146  A    between atoms: _357  and  _360
REMARK  147  A    between atoms: _360  and  _361
REMARK  148  A    between atoms: _364  and  _366
REMARK  149  A    between atoms: _366  and  _367
REMARK  150  A    between atoms: _366  and  _369
REMARK  151  A    between atoms: _369  and  _370
REMARK  152  A    between atoms: _373  and  _375
REMARK  153  A    between atoms: _375  and  _376
REMARK  154  A    between atoms: _375  and  _378
REMARK  155  A    between atoms: _378  and  _379
REMARK  156  A    between atoms: _382  and  _384
REMARK  157  A    between atoms: _384  and  _385
REMARK  158  A    between atoms: _384  and  _387
REMARK  159  A    between atoms: _390  and  _392
REMARK  160  A    between atoms: _392  and  _393
REMARK  161  A    between atoms: _392  and  _395
REMARK  162  A    between atoms: _395  and  _396
REMARK  163  A    between atoms: _399  and  _401
REMARK  164  A    between atoms: _401  and  _402
REMARK  165  A    between atoms: _401  and  _404
REMARK  166  A    between atoms: _404  and  _405
REMARK  167  A    between atoms: _405  and  _406
REMARK  168  A    between atoms: _406  and  _407
REMARK  169  A    between atoms: _407  and  _408
REMARK  170  A    between atoms: _412  and  _414
REMARK  171  A    between atoms: _414  and  _415
REMARK  172  A    between atoms: _414  and  _417
REMARK  173  A    between atoms: _417  and  _418
REMARK  174  A    between atoms: _418  and  _419
REMARK  175  A    between atoms: _421  and  _423
REMARK  176  A    between atoms: _423  and  _424
REMARK  177  A    between atoms: _423  and  _426
REMARK  178  A    between atoms: _426  and  _427
REMARK  179  A    between atoms: _430  and  _432
REMARK  180  A    between atoms: _432  and  _433
REMARK  181  A    between atoms: _435  and  _437
REMARK  182  A    between atoms: _437  and  _438
REMARK  183  A    between atoms: _440  and  _442
REMARK  184  A    between atoms: _442  and  _443
REMARK  185  A    between atoms: _442  and  _445
REMARK  186  A    between atoms: _445  and  _446
REMARK  187  A    between atoms: _449  and  _451
REMARK  188  A    between atoms: _451  and  _452
REMARK  189  A    between atoms: _454  and  _456
REMARK  190  A    between atoms: _456  and  _457
REMARK  191  A    between atoms: _459  and  _461
REMARK  192  A    between atoms: _461  and  _462
REMARK  193  A    between atoms: _461  and  _464
REMARK  194  A    between atoms: _464  and  _465
REMARK  195  A    between atoms: _471  and  _473
REMARK  196  A    between atoms: _473  and  _474
REMARK  197  A    between atoms: _473  and  _476
REMARK  198  A    between atoms: _476  and  _477
REMARK  199  A    between atoms: _477  and  _478
REMARK  200  A    between atoms: _480  and  _482
REMARK  201  A    between atoms: _482  and  _483
REMARK  202  A    between atoms: _482  and  _485
REMARK  203  A    between atoms: _488  and  _490
REMARK  204  A    between atoms: _490  and  _491
REMARK  205  A    between atoms: _490  and  _493
REMARK  206  A    between atoms: _493  and  _494
REMARK  207  A    between atoms: _497  and  _499
REMARK  208  A    between atoms: _499  and  _500
REMARK  209  A    between atoms: _499  and  _502
REMARK  210  A    between atoms: _502  and  _503
REMARK  211  A    between atoms: _507  and  _508
REMARK  212  A    between atoms: _513  and  _515
REMARK  213  A    between atoms: _515  and  _516
REMARK  214  A    between atoms: _515  and  _518
REMARK  215  A    between atoms: _521  and  _523
REMARK  216  A    between atoms: _523  and  _524
REMARK  217  A    between atoms: _523  and  _526
REMARK  218  A    between atoms: _526  and  _527
REMARK  219  A    between atoms: _532  and  _534
REMARK  220  A    between atoms: _534  and  _535
REMARK  221  A    between atoms: _534  and  _537
REMARK  222  A    between atoms: _537  and  _538
REMARK  223  A    between atoms: _541  and  _543
REMARK  224  A    between atoms: _543  and  _544
REMARK  225  A    between atoms: _543  and  _546
REMARK  226  A    between atoms: _546  and  _547
REMARK  227  A    between atoms: _550  and  _552
REMARK  228  A    between atoms: _552  and  _553
REMARK  229  A    between atoms: _555  and  _557
REMARK  230  A    between atoms: _557  and  _558
REMARK  231  A    between atoms: _557  and  _560
REMARK  232  A    between atoms: _560  and  _561
REMARK  233  A    between atoms: _561  and  _562
REMARK  234  A    between atoms: _562  and  _563
REMARK  235  A    between atoms: _572  and  _574
REMARK  236  A    between atoms: _574  and  _575
REMARK  237  A    between atoms: _574  and  _577
REMARK  238  A    between atoms: _577  and  _578
REMARK                            x       y       z     vdW  Elec       q    Type
REMARK                         _______ _______ _______ _____ _____    ______ ____
ROOT
ATOM      1  CA  ILE A   6     -13.001 -14.313 -11.219  0.00  0.00    +0.149 C 
ENDROOT
BRANCH   1   2
ATOM      2  C   ILE A   6     -13.369 -12.846 -11.257  0.00  0.00    +0.241 C 
ATOM      3  O   ILE A   6     -14.397 -12.458 -10.682  0.00  0.00    -0.273 OA
ATOM      4  N   ILE A   7     -12.555 -12.057 -11.952  0.00  0.00    -0.297 N 
ATOM      5  H   ILE A   7     -11.659 -12.444 -12.312  0.00  0.00    +0.150 HD
BRANCH   4   6
ATOM      6  CA  ILE A   7     -12.888 -10.655 -12.224  0.00  0.00    +0.149 C 
BRANCH   6   7
ATOM      7  C   ILE A   7     -13.555 -10.640 -13.611  0.00  0.00    +0.241 C 
ATOM      8  N   GLY A   8     -14.837 -10.334 -13.653  0.00  0.00    -0.295 N 
ATOM      9  H   GLY A   8     -15.320 -10.082 -12.767  0.00  0.00    +0.150 HD
ATOM     10  O   ILE A   7     -12.896 -10.958 -14.598  0.00  0.00    -0.273 OA
BRANCH   8  11
ATOM     11  CA  GLY A   8     -15.591 -10.335 -14.871  0.00  0.00    +0.176 C 
BRANCH  11  12
ATOM     12  C   GLY A   8     -15.693  -8.995 -15.500  0.00  0.00    +0.243 C 
ATOM     13  O   GLY A   8     -15.174  -7.969 -15.030  0.00  0.00    -0.273 OA
ATOM     14  N   ARG A   9     -16.424  -8.942 -16.605  0.00  0.00    -0.297 N 
ATOM     15  H   ARG A   9     -16.972  -9.779 -16.889  0.00  0.00    +0.150 HD
BRANCH  14  16
ATOM     16  CA  ARG A   9     -16.481  -7.731 -17.442  0.00  0.00    +0.149 C 
BRANCH  16  17
ATOM     17  C   ARG A   9     -16.965  -6.526 -16.699  0.00  0.00    +0.241 C 
ATOM     18  N   ASN A  10     -17.902  -6.718 -15.762  0.00  0.00    -0.298 N 
ATOM     19  H   ASN A  10     -18.224  -7.683 -15.547  0.00  0.00    +0.150 HD
ATOM     20  O   ARG A   9     -16.564  -5.378 -16.948  0.00  0.00    -0.273 OA
BRANCH  18  21
ATOM     21  CA  ASN A  10     -18.480  -5.582 -15.036  0.00  0.00    +0.146 C 
BRANCH  21  22
ATOM     22  C   ASN A  10     -17.444  -4.750 -14.308  0.00  0.00    +0.227 C 
ATOM     23  O   ASN A  10     -17.669  -3.569 -14.126  0.00  0.00    -0.286 OA
ENDBRANCH  21  22
BRANCH  21  24
ATOM     24  CB  ASN A  10     -19.571  -6.004 -14.071  0.00  0.00    +0.112 C 
BRANCH  24  25
ATOM     25  CG  ASN A  10     -19.143  -6.576 -12.753  0.00  0.00    +0.222 C 
ATOM     26  OD1 ASN A  10     -19.518  -6.171 -11.632  0.00  0.00    -0.275 OA
ATOM     27  ND2 ASN A  10     -18.369  -7.549 -12.851  0.00  0.00    -0.329 N 
ATOM     28 HD21 ASN A  10     -18.029  -8.032 -11.995  0.00  0.00    +0.145 HD
ATOM     29 HD22 ASN A  10     -18.063  -7.878 -13.789  0.00  0.00    +0.145 HD
ENDBRANCH  24  25
ENDBRANCH  21  24
ENDBRANCH  18  21
ENDBRANCH  16  17
BRANCH  16  30
ATOM     30  CB  ARG A   9     -17.324  -7.971 -18.699  0.00  0.00    +0.033 C 
BRANCH  30  31
ATOM     31  CG  ARG A   9     -16.707  -8.923 -19.670  0.00  0.00    +0.045 C 
BRANCH  31  32
ATOM     32  CD  ARG A   9     -17.459  -9.016 -21.000  0.00  0.00    +0.174 C 
BRANCH  32  33
ATOM     33  NE  ARG A   9     -18.859  -9.429 -20.827  0.00  0.00    -0.265 N 
ATOM     34  HE  ARG A   9     -19.011 -10.454 -20.734  0.00  0.00    +0.259 HD
ATOM     35  CZ  ARG A   9     -19.954  -8.689 -20.772  0.00  0.00    +0.342 C 
ATOM     36  NH2 ARG A   9     -21.155  -9.242 -20.563  0.00  0.00    -0.292 N 
ATOM     37 HH21 ARG A   9     -21.239 -10.271 -20.440  0.00  0.00    +0.255 HD
ATOM     38 HH22 ARG A   9     -22.004  -8.642 -20.523  0.00  0.00    +0.255 HD
ATOM     39  NH1 ARG A   9     -19.879  -7.353 -20.946  0.00  0.00    -0.292 N 
ATOM     40 HH11 ARG A   9     -20.742  -6.774 -20.902  0.00  0.00    +0.255 HD
ATOM     41 HH12 ARG A   9     -18.959  -6.903 -21.124  0.00  0.00    +0.255 HD
ENDBRANCH  32  33
ENDBRANCH  31  32
ENDBRANCH  30  31
ENDBRANCH  16  30
ENDBRANCH  14  16
ENDBRANCH  11  12
ENDBRANCH   8  11
ENDBRANCH   6   7
BRANCH   6  42
ATOM     42  CB  ILE A   7     -11.690  -9.715 -12.204  0.00  0.00    +0.027 C 
ATOM     43  CG2 ILE A   7     -12.108  -8.281 -12.505  0.00  0.00    +0.002 C 
BRANCH  42  44
ATOM     44  CG1 ILE A   7     -10.901  -9.760 -10.884  0.00  0.00    +0.002 C 
ATOM     45  CD1 ILE A   7     -11.785  -9.400  -9.707  0.00  0.00    +0.000 C 
ENDBRANCH  42  44
ENDBRANCH   6  42
ENDBRANCH   4   6
ENDBRANCH   1   2
BRANCH   1  47
ATOM     46  C   ASN A   5     -11.800 -15.370  -9.386  0.00  0.00    +0.241 C 
ATOM     47  N   ILE A   6     -12.861 -14.771  -9.861  0.00  0.00    -0.297 N 
ATOM     48  H   ILE A   6     -13.659 -14.615  -9.213  0.00  0.00    +0.150 HD
ATOM     49  O   ASN A   5     -10.760 -15.488 -10.013  0.00  0.00    -0.273 OA
BRANCH  46  50
ATOM     50  CA  ASN A   5     -11.885 -15.948  -7.974  0.00  0.00    +0.158 C 
BRANCH  50  52
ATOM     51  C   VAL A   4     -11.965 -18.312  -8.521  0.00  0.00    +0.241 C 
ATOM     52  N   ASN A   5     -11.319 -17.296  -7.992  0.00  0.00    -0.297 N 
ATOM     53  H   ASN A   5     -10.380 -17.456  -7.575  0.00  0.00    +0.150 HD
ATOM     54  O   VAL A   4     -13.139 -18.183  -8.933  0.00  0.00    -0.273 OA
BRANCH  51  55
ATOM     55  CA  VAL A   4     -11.267 -19.645  -8.643  0.00  0.00    +0.149 C 
BRANCH  55  58
ATOM     56  C   PRO A   3     -11.825 -21.775  -7.589  0.00  0.00    +0.241 C 
ATOM     57  O   PRO A   3     -10.666 -21.970  -7.212  0.00  0.00    -0.273 OA
ATOM     58  N   VAL A   4     -12.187 -20.685  -8.236  0.00  0.00    -0.297 N 
ATOM     59  H   VAL A   4     -13.194 -20.565  -8.468  0.00  0.00    +0.150 HD
BRANCH  56  63
ATOM     60  C   THR A   2     -14.843 -21.457  -6.667  0.00  0.00    +0.246 C 
ATOM     61  O   THR A   2     -14.326 -21.107  -5.623  0.00  0.00    -0.273 OA
ATOM     62  N   PRO A   3     -14.282 -22.313  -7.508  0.00  0.00    -0.272 N 
ATOM     63  CA  PRO A   3     -12.900 -22.804  -7.262  0.00  0.00    +0.152 C 
ATOM     64  CB  PRO A   3     -12.809 -24.019  -8.173  0.00  0.00    +0.031 C 
ATOM     65  CG  PRO A   3     -13.785 -23.745  -9.270  0.00  0.00    +0.024 C 
ATOM     66  CD  PRO A   3     -14.905 -22.962  -8.654  0.00  0.00    +0.094 C 
BRANCH  60  67
ATOM     67  CA  THR A   2     -16.203 -20.948  -7.013  0.00  0.00    +0.176 C 
BRANCH  67  70
ATOM     68  C   PRO A   1     -17.668 -21.911  -5.300  0.00  0.00    +0.239 C 
ATOM     69  O   PRO A   1     -17.478 -23.032  -5.798  0.00  0.00    -0.274 OA
ATOM     70  N   THR A   2     -17.102 -20.859  -5.856  0.00  0.00    -0.295 N 
ATOM     71  H   THR A   2     -17.302 -19.920  -5.456  0.00  0.00    +0.150 HD
BRANCH  68  73
ATOM     72  N   PRO A   1     -19.483 -20.663  -4.130  0.00  0.00    -0.210 NA
ATOM     73  CA  PRO A   1     -18.442 -21.703  -4.001  0.00  0.00    +0.149 C 
ATOM     74  CB  PRO A   1     -19.249 -22.910  -3.561  0.00  0.00    +0.028 C 
ATOM     75  CG  PRO A   1     -20.566 -22.724  -4.249  0.00  0.00    +0.021 C 
ATOM     76  CD  PRO A   1     -20.794 -21.226  -4.248  0.00  0.00    +0.089 C 
ENDBRANCH  68  73
ENDBRANCH  67  70
BRANCH  67  77
ATOM     77  CB  THR A   2     -16.170 -19.575  -7.737  0.00  0.00    +0.137 C 
ATOM     78  CG2 THR A   2     -15.683 -18.459  -6.891  0.00  0.00    +0.034 C 
BRANCH  77  79
ATOM     79  OG1 THR A   2     -15.303 -19.809  -8.869  0.00  0.00    -0.382 OA
ATOM     80  HG1 THR A   2     -15.221 -18.976  -9.398  0.00  0.00    +0.210 HD
ENDBRANCH  77  79
ENDBRANCH  67  77
ENDBRANCH  60  67
ENDBRANCH  56  63
ENDBRANCH  55  58
BRANCH  55  81
ATOM     81  CB  VAL A   4     -10.760 -19.898 -10.062  0.00  0.00    +0.027 C 
ATOM     82  CG2 VAL A   4      -9.760 -18.833 -10.448  0.00  0.00    +0.002 C 
ATOM     83  CG1 VAL A   4     -11.859 -19.948 -11.116  0.00  0.00    +0.002 C 
ENDBRANCH  55  81
ENDBRANCH  51  55
ENDBRANCH  50  52
BRANCH  50  84
ATOM     84  CB  ASN A   5     -11.129 -15.046  -7.023  0.00  0.00    +0.114 C 
BRANCH  84  85
ATOM     85  CG  ASN A   5     -11.153 -15.555  -5.586  0.00  0.00    +0.222 C 
ATOM     86  ND2 ASN A   5     -10.040 -15.695  -4.930  0.00  0.00    -0.329 N 
ATOM     87 HD21 ASN A   5     -10.054 -16.045  -3.951  0.00  0.00    +0.145 HD
ATOM     88 HD22 ASN A   5      -9.135 -15.457  -5.384  0.00  0.00    +0.145 HD
ATOM     89  OD1 ASN A   5     -12.221 -15.815  -5.107  0.00  0.00    -0.275 OA
ENDBRANCH  84  85
ENDBRANCH  50  84
ENDBRANCH  46  50
ENDBRANCH   1  47
BRANCH   1  90
ATOM     90  CB  ILE A   6     -14.102 -15.126 -11.941  0.00  0.00    +0.027 C 
ATOM     91  CG2 ILE A   6     -14.460 -14.502 -13.284  0.00  0.00    +0.002 C 
BRANCH  90  92
ATOM     92  CG1 ILE A   6     -13.747 -16.593 -12.059  0.00  0.00    +0.002 C 
ATOM     93  CD1 ILE A   6     -14.925 -17.501 -12.379  0.00  0.00    +0.000 C 
ENDBRANCH  90  92
ENDBRANCH   1  90
TORSDOF 33
REMARK  Name = ../refined-set-2016/3nu6/3nu6_pocket.pdb
REMARK  238 active torsions:
REMARK  status: ('A' for Active; 'I' for Inactive)
REMARK    1  A    between atoms: _1  and  _3
REMARK    2  A    between atoms: _3  and  _4
REMARK    3  A    between atoms: _3  and  _6
REMARK    4  A    between atoms: _6  and  _7
REMARK    5  A    between atoms: _7  and  _8
REMARK    6  A    between atoms: _8  and  _9
REMARK    7  A    between atoms: _18  and  _20
REMARK    8  A    between atoms: _20  and  _21
REMARK    9  A    between atoms: _20  and  _23
REMARK   10  A    between atoms: _23  and  _24
REMARK   11  A    between atoms: _27  and  _29
REMARK   12  A    between atoms: _29  and  _30
REMARK   13  A    between atoms: _29  and  _32
REMARK   14  A    between atoms: _32  and  _33
REMARK   15  A    between atoms: _36  and  _38
REMARK   16  A    between atoms: _38  and  _39
REMARK   17  A    between atoms: _38  and  _41
REMARK   18  A    between atoms: _41  and  _42
REMARK   19  A    between atoms: _45  and  _47
REMARK   20  A    between atoms: _47  and  _48
REMARK   21  A    between atoms: _47  and  _50
REMARK   22  A    between atoms: _50  and  _51
REMARK   23  A    between atoms: _54  and  _56
REMARK   24  A    between atoms: _56  and  _57
REMARK   25  A    between atoms: _59  and  _61
REMARK   26  A    between atoms: _61  and  _62
REMARK   27  A    between atoms: _65  and  _67
REMARK   28  A    between atoms: _67  and  _68
REMARK   29  A    between atoms: _67  and  _70
REMARK   30  A    between atoms: _70  and  _71
REMARK   31  A    between atoms: _74  and  _76
REMARK   32  A    between atoms: _76  and  _77
REMARK   33  A    between atoms: _76  and  _79
REMARK   34  A    between atoms: _79  and  _80
REMARK   35  A    between atoms: _83  and  _85
REMARK   36  A    between atoms: _85  and  _86
REMARK   37  A    between atoms: _85  and  _88
REMARK   38  A    between atoms: _88  and  _89
REMARK   39  A    between atoms: _92  and  _94
REMARK   40  A    between atoms: _94  and  _95
REMARK   41  A    between atoms: _94  and  _97
REMARK   42  A    between atoms: _100  and  _102
REMARK   43  A    between atoms: _102  and  _103
REMARK   44  A    between atoms: _102  and  _105
REMARK   45  A    between atoms: _106  and  _107
REMARK   46  A    between atoms: _107  and  _108
REMARK   47  A    between atoms: _108  and  _109
REMARK   48  A    between atoms: _113  and  _115
REMARK   49  A    between atoms: _115  and  _116
REMARK   50  A    between atoms: _115  and  _118
REMARK   51  A    between atoms: _118  and  _119
REMARK   52  A    between atoms: _119  and  _120
REMARK   53  A    between atoms: _122  and  _124
REMARK   54  A    between atoms: _124  and  _125
REMARK   55  A    between atoms: _124  and  _127
REMARK   56  A    between atoms: _127  and  _128
REMARK   57  A    between atoms: _131  and  _133
REMARK   58  A    between atoms: _133  and  _134
REMARK   59  A    between atoms: _136  and  _138
REMARK   60  A    between atoms: _138  and  _139
REMARK   61  A    between atoms: _141  and  _143
REMARK   62  A    between atoms: _143  and  _144
REMARK   63  A    between atoms: _143  and  _146
REMARK   64  A    between atoms: _146  and  _147
REMARK   65  A    between atoms: _150  and  _152
REMARK   66  A    between atoms: _152  and  _153
REMARK   67  A    between atoms: _155  and  _157
REMARK   68  A    between atoms: _157  and  _158
REMARK   69  A    between atoms: _160  and  _162
REMARK   70  A    between atoms: _162  and  _163
REMARK   71  A    between atoms: _162  and  _165
REMARK   72  A    between atoms: _165  and  _166
REMARK   73  A    between atoms: _172  and  _174
REMARK   74  A    between atoms: _174  and  _175
REMARK   75  A    between atoms: _174  and  _177
REMARK   76  A    between atoms: _177  and  _178
REMARK   77  A    between atoms: _178  and  _179
REMARK   78  A    between atoms: _181  and  _183
REMARK   79  A    between atoms: _183  and  _184
REMARK   80  A    between atoms: _183  and  _186
REMARK   81  A    between atoms: _189  and  _191
REMARK   82  A    between atoms: _191  and  _192
REMARK   83  A    between atoms: _191  and  _194
REMARK   84  A    between atoms: _194  and  _195
REMARK   85  A    between atoms: _199  and  _200
REMARK   86  A    between atoms: _205  and  _207
REMARK   87  A    between atoms: _207  and  _208
REMARK   88  A    between atoms: _207  and  _210
REMARK   89  A    between atoms: _210  and  _211
REMARK   90  A    between atoms: _215  and  _216
REMARK   91  A    between atoms: _221  and  _223
REMARK   92  A    between atoms: _223  and  _224
REMARK   93  A    between atoms: _223  and  _226
REMARK   94  A    between atoms: _229  and  _231
REMARK   95  A    between atoms: _231  and  _232
REMARK   96  A    between atoms: _231  and  _234
REMARK   97  A    between atoms: _234  and  _235
REMARK   98  A    between atoms: _240  and  _242
REMARK   99  A    between atoms: _242  and  _243
REMARK  100  A    between atoms: _242  and  _245
REMARK  101  A    between atoms: _245  and  _246
REMARK  102  A    between atoms: _249  and  _251
REMARK  103  A    between atoms: _251  and  _252
REMARK  104  A    between atoms: _251  and  _254
REMARK  105  A    between atoms: _254  and  _255
REMARK  106  A    between atoms: _258  and  _260
REMARK  107  A    between atoms: _260  and  _261
REMARK  108  A    between atoms: _263  and  _265
REMARK  109  A    between atoms: _265  and  _266
REMARK  110  A    between atoms: _265  and  _268
REMARK  111  A    between atoms: _268  and  _269
REMARK  112  A    between atoms: _269  and  _270
REMARK  113  A    between atoms: _270  and  _271
REMARK  114  A    between atoms: _280  and  _282
REMARK  115  A    between atoms: _282  and  _283
REMARK  116  A    between atoms: _282  and  _285
REMARK  117  A    between atoms: _285  and  _286
REMARK  118  A    between atoms: _291  and  _293
REMARK  119  A    between atoms: _293  and  _294
REMARK  120  A    between atoms: _293  and  _296
REMARK  121  A    between atoms: _296  and  _297
REMARK  122  A    between atoms: _297  and  _298
REMARK  123  A    between atoms: _298  and  _299
REMARK  124  A    between atoms: _308  and  _310
REMARK  125  A    between atoms: _310  and  _311
REMARK  126  A    between atoms: _310  and  _313
REMARK  127  A    between atoms: _313  and  _314
REMARK  128  A    between atoms: _317  and  _319
REMARK  129  A    between atoms: _319  and  _320
REMARK  130  A    between atoms: _319  and  _322
REMARK  131  A    between atoms: _322  and  _323
REMARK  132  A    between atoms: _326  and  _328
REMARK  133  A    between atoms: _328  and  _329
REMARK  134  A    between atoms: _328  and  _331
REMARK  135  A    between atoms: _331  and  _332
REMARK  136  A    between atoms: _335  and  _337
REMARK  137  A    between atoms: _337  and  _338
REMARK  138  A    between atoms: _337  and  _340
REMARK  139  A    between atoms: _340  and  _341
REMARK  140  A    between atoms: _344  and  _346
REMARK  141  A    between atoms: _346  and  _347
REMARK  142  A    between atoms: _349  and  _351
REMARK  143  A    between atoms: _351  and  _352
REMARK  144  A    between atoms: _355  and  _357
REMARK  145  A    between atoms: _357  and  _358
REMARK  146  A    between atoms: _357  and  _360
REMARK  147  A    between atoms: _360  and  _361
REMARK  148  A    between atoms: _364  and  _366
REMARK  149  A    between atoms: _366  and  _367
REMARK  150  A    between atoms: _366  and  _369
REMARK  151  A    between atoms: _369  and  _370
REMARK  152  A    between atoms: _373  and  _375
REMARK  153  A    between atoms: _375  and  _376
REMARK  154  A    between atoms: _375  and  _378
REMARK  155  A    between atoms: _378  and  _379
REMARK  156  A    between atoms: _382  and  _384
REMARK  157  A    between atoms: _384  and  _385
REMARK  158  A    between atoms: _384  and  _387
REMARK  159  A    between atoms: _390  and  _392
REMARK  160  A    between atoms: _392  and  _393
REMARK  161  A    between atoms: _392  and  _395
REMARK  162  A    between atoms: _395  and  _396
REMARK  163  A    between atoms: _399  and  _401
REMARK  164  A    between atoms: _401  and  _402
REMARK  165  A    between atoms: _401  and  _404
REMARK  166  A    between atoms: _404  and  _405
REMARK  167  A    between atoms: _405  and  _406
REMARK  168  A    between atoms: _406  and  _407
REMARK  169  A    between atoms: _407  and  _408
REMARK  170  A    between atoms: _412  and  _414
REMARK  171  A    between atoms: _414  and  _415
REMARK  172  A    between atoms: _414  and  _417
REMARK  173  A    between atoms: _417  and  _418
REMARK  174  A    between atoms: _418  and  _419
REMARK  175  A    between atoms: _421  and  _423
REMARK  176  A    between atoms: _423  and  _424
REMARK  177  A    between atoms: _423  and  _426
REMARK  178  A    between atoms: _426  and  _427
REMARK  179  A    between atoms: _430  and  _432
REMARK  180  A    between atoms: _432  and  _433
REMARK  181  A    between atoms: _435  and  _437
REMARK  182  A    between atoms: _437  and  _438
REMARK  183  A    between atoms: _440  and  _442
REMARK  184  A    between atoms: _442  and  _443
REMARK  185  A    between atoms: _442  and  _445
REMARK  186  A    between atoms: _445  and  _446
REMARK  187  A    between atoms: _449  and  _451
REMARK  188  A    between atoms: _451  and  _452
REMARK  189  A    between atoms: _454  and  _456
REMARK  190  A    between atoms: _456  and  _457
REMARK  191  A    between atoms: _459  and  _461
REMARK  192  A    between atoms: _461  and  _462
REMARK  193  A    between atoms: _461  and  _464
REMARK  194  A    between atoms: _464  and  _465
REMARK  195  A    between atoms: _471  and  _473
REMARK  196  A    between atoms: _473  and  _474
REMARK  197  A    between atoms: _473  and  _476
REMARK  198  A    between atoms: _476  and  _477
REMARK  199  A    between atoms: _477  and  _478
REMARK  200  A    between atoms: _480  and  _482
REMARK  201  A    between atoms: _482  and  _483
REMARK  202  A    between atoms: _482  and  _485
REMARK  203  A    between atoms: _488  and  _490
REMARK  204  A    between atoms: _490  and  _491
REMARK  205  A    between atoms: _490  and  _493
REMARK  206  A    between atoms: _493  and  _494
REMARK  207  A    between atoms: _497  and  _499
REMARK  208  A    between atoms: _499  and  _500
REMARK  209  A    between atoms: _499  and  _502
REMARK  210  A    between atoms: _502  and  _503
REMARK  211  A    between atoms: _507  and  _508
REMARK  212  A    between atoms: _513  and  _515
REMARK  213  A    between atoms: _515  and  _516
REMARK  214  A    between atoms: _515  and  _518
REMARK  215  A    between atoms: _521  and  _523
REMARK  216  A    between atoms: _523  and  _524
REMARK  217  A    between atoms: _523  and  _526
REMARK  218  A    between atoms: _526  and  _527
REMARK  219  A    between atoms: _532  and  _534
REMARK  220  A    between atoms: _534  and  _535
REMARK  221  A    between atoms: _534  and  _537
REMARK  222  A    between atoms: _537  and  _538
REMARK  223  A    between atoms: _541  and  _543
REMARK  224  A    between atoms: _543  and  _544
REMARK  225  A    between atoms: _543  and  _546
REMARK  226  A    between atoms: _546  and  _547
REMARK  227  A    between atoms: _550  and  _552
REMARK  228  A    between atoms: _552  and  _553
REMARK  229  A    between atoms: _555  and  _557
REMARK  230  A    between atoms: _557  and  _558
REMARK  231  A    between atoms: _557  and  _560
REMARK  232  A    between atoms: _560  and  _561
REMARK  233  A    between atoms: _561  and  _562
REMARK  234  A    between atoms: _562  and  _563
REMARK  235  A    between atoms: _572  and  _574
REMARK  236  A    between atoms: _574  and  _575
REMARK  237  A    between atoms: _574  and  _577
REMARK  238  A    between atoms: _577  and  _578
REMARK                            x       y       z     vdW  Elec       q    Type
REMARK                         _______ _______ _______ _____ _____    ______ ____
ROOT
ATOM      1  NE  ARG A   1     -22.116 -13.425 -22.367  0.00  0.00    -0.265 N 
ATOM      2  HE  ARG A   1     -21.913 -12.883 -21.503  0.00  0.00    +0.259 HD
ATOM      3  CZ  ARG A   1     -22.617 -14.652 -22.224  0.00  0.00    +0.342 C 
ATOM      4  NH2 ARG A   1     -22.827 -15.108 -20.985  0.00  0.00    -0.292 N 
ATOM      5 HH21 ARG A   1     -22.600 -14.509 -20.165  0.00  0.00    +0.255 HD
ATOM      6 HH22 ARG A   1     -23.217 -16.061 -20.841  0.00  0.00    +0.255 HD
ATOM      7  NH1 ARG A   1     -22.878 -15.420 -23.243  0.00  0.00    -0.292 N 
ATOM      8 HH11 ARG A   1     -23.269 -16.372 -23.090  0.00  0.00    +0.255 HD
ATOM      9 HH12 ARG A   1     -22.696 -15.082 -24.209  0.00  0.00    +0.255 HD
ENDROOT
BRANCH   1  10
ATOM     10  CD  ARG A   1     -21.834 -12.792 -23.643  0.00  0.00    +0.174 C 
BRANCH  10  11
ATOM     11  CG  ARG A   1     -21.230 -11.398 -23.427  0.00  0.00    +0.045 C 
BRANCH  11  12
ATOM     12  CB  ARG A   1     -20.575 -10.909 -24.708  0.00  0.00    +0.029 C 
BRANCH  12  13
ATOM     13  CA  ARG A   1     -19.631  -9.731 -24.536  0.00  0.00    +0.133 C 
BRANCH  13  14
ATOM     14  N   ARG A   1     -20.381  -8.495 -24.358  0.00  0.00    -0.239 NA
ATOM     15  H   ARG A   1     -21.420  -8.519 -24.331  0.00  0.00    +0.142 HD
ENDBRANCH  13  14
BRANCH  13  16
ATOM     16  C   ARG A   1     -18.713  -9.658 -25.755  0.00  0.00    +0.224 C 
ATOM     17  O   ARG A   1     -19.153  -9.189 -26.810  0.00  0.00    -0.287 OA
ENDBRANCH  13  16
ENDBRANCH  12  13
ENDBRANCH  11  12
ENDBRANCH  10  11
ENDBRANCH   1  10
TORSDOF 6
REMARK  Name = ../refined-set-2016/3nu6/3nu6_pocket.pdb
REMARK  238 active torsions:
REMARK  status: ('A' for Active; 'I' for Inactive)
REMARK    1  A    between atoms: _1  and  _3
REMARK    2  A    between atoms: _3  and  _4
REMARK    3  A    between atoms: _3  and  _6
REMARK    4  A    between atoms: _6  and  _7
REMARK    5  A    between atoms: _7  and  _8
REMARK    6  A    between atoms: _8  and  _9
REMARK    7  A    between atoms: _18  and  _20
REMARK    8  A    between atoms: _20  and  _21
REMARK    9  A    between atoms: _20  and  _23
REMARK   10  A    between atoms: _23  and  _24
REMARK   11  A    between atoms: _27  and  _29
REMARK   12  A    between atoms: _29  and  _30
REMARK   13  A    between atoms: _29  and  _32
REMARK   14  A    between atoms: _32  and  _33
REMARK   15  A    between atoms: _36  and  _38
REMARK   16  A    between atoms: _38  and  _39
REMARK   17  A    between atoms: _38  and  _41
REMARK   18  A    between atoms: _41  and  _42
REMARK   19  A    between atoms: _45  and  _47
REMARK   20  A    between atoms: _47  and  _48
REMARK   21  A    between atoms: _47  and  _50
REMARK   22  A    between atoms: _50  and  _51
REMARK   23  A    between atoms: _54  and  _56
REMARK   24  A    between atoms: _56  and  _57
REMARK   25  A    between atoms: _59  and  _61
REMARK   26  A    between atoms: _61  and  _62
REMARK   27  A    between atoms: _65  and  _67
REMARK   28  A    between atoms: _67  and  _68
REMARK   29  A    between atoms: _67  and  _70
REMARK   30  A    between atoms: _70  and  _71
REMARK   31  A    between atoms: _74  and  _76
REMARK   32  A    between atoms: _76  and  _77
REMARK   33  A    between atoms: _76  and  _79
REMARK   34  A    between atoms: _79  and  _80
REMARK   35  A    between atoms: _83  and  _85
REMARK   36  A    between atoms: _85  and  _86
REMARK   37  A    between atoms: _85  and  _88
REMARK   38  A    between atoms: _88  and  _89
REMARK   39  A    between atoms: _92  and  _94
REMARK   40  A    between atoms: _94  and  _95
REMARK   41  A    between atoms: _94  and  _97
REMARK   42  A    between atoms: _100  and  _102
REMARK   43  A    between atoms: _102  and  _103
REMARK   44  A    between atoms: _102  and  _105
REMARK   45  A    between atoms: _106  and  _107
REMARK   46  A    between atoms: _107  and  _108
REMARK   47  A    between atoms: _108  and  _109
REMARK   48  A    between atoms: _113  and  _115
REMARK   49  A    between atoms: _115  and  _116
REMARK   50  A    between atoms: _115  and  _118
REMARK   51  A    between atoms: _118  and  _119
REMARK   52  A    between atoms: _119  and  _120
REMARK   53  A    between atoms: _122  and  _124
REMARK   54  A    between atoms: _124  and  _125
REMARK   55  A    between atoms: _124  and  _127
REMARK   56  A    between atoms: _127  and  _128
REMARK   57  A    between atoms: _131  and  _133
REMARK   58  A    between atoms: _133  and  _134
REMARK   59  A    between atoms: _136  and  _138
REMARK   60  A    between atoms: _138  and  _139
REMARK   61  A    between atoms: _141  and  _143
REMARK   62  A    between atoms: _143  and  _144
REMARK   63  A    between atoms: _143  and  _146
REMARK   64  A    between atoms: _146  and  _147
REMARK   65  A    between atoms: _150  and  _152
REMARK   66  A    between atoms: _152  and  _153
REMARK   67  A    between atoms: _155  and  _157
REMARK   68  A    between atoms: _157  and  _158
REMARK   69  A    between atoms: _160  and  _162
REMARK   70  A    between atoms: _162  and  _163
REMARK   71  A    between atoms: _162  and  _165
REMARK   72  A    between atoms: _165  and  _166
REMARK   73  A    between atoms: _172  and  _174
REMARK   74  A    between atoms: _174  and  _175
REMARK   75  A    between atoms: _174  and  _177
REMARK   76  A    between atoms: _177  and  _178
REMARK   77  A    between atoms: _178  and  _179
REMARK   78  A    between atoms: _181  and  _183
REMARK   79  A    between atoms: _183  and  _184
REMARK   80  A    between atoms: _183  and  _186
REMARK   81  A    between atoms: _189  and  _191
REMARK   82  A    between atoms: _191  and  _192
REMARK   83  A    between atoms: _191  and  _194
REMARK   84  A    between atoms: _194  and  _195
REMARK   85  A    between atoms: _199  and  _200
REMARK   86  A    between atoms: _205  and  _207
REMARK   87  A    between atoms: _207  and  _208
REMARK   88  A    between atoms: _207  and  _210
REMARK   89  A    between atoms: _210  and  _211
REMARK   90  A    between atoms: _215  and  _216
REMARK   91  A    between atoms: _221  and  _223
REMARK   92  A    between atoms: _223  and  _224
REMARK   93  A    between atoms: _223  and  _226
REMARK   94  A    between atoms: _229  and  _231
REMARK   95  A    between atoms: _231  and  _232
REMARK   96  A    between atoms: _231  and  _234
REMARK   97  A    between atoms: _234  and  _235
REMARK   98  A    between atoms: _240  and  _242
REMARK   99  A    between atoms: _242  and  _243
REMARK  100  A    between atoms: _242  and  _245
REMARK  101  A    between atoms: _245  and  _246
REMARK  102  A    between atoms: _249  and  _251
REMARK  103  A    between atoms: _251  and  _252
REMARK  104  A    between atoms: _251  and  _254
REMARK  105  A    between atoms: _254  and  _255
REMARK  106  A    between atoms: _258  and  _260
REMARK  107  A    between atoms: _260  and  _261
REMARK  108  A    between atoms: _263  and  _265
REMARK  109  A    between atoms: _265  and  _266
REMARK  110  A    between atoms: _265  and  _268
REMARK  111  A    between atoms: _268  and  _269
REMARK  112  A    between atoms: _269  and  _270
REMARK  113  A    between atoms: _270  and  _271
REMARK  114  A    between atoms: _280  and  _282
REMARK  115  A    between atoms: _282  and  _283
REMARK  116  A    between atoms: _282  and  _285
REMARK  117  A    between atoms: _285  and  _286
REMARK  118  A    between atoms: _291  and  _293
REMARK  119  A    between atoms: _293  and  _294
REMARK  120  A    between atoms: _293  and  _296
REMARK  121  A    between atoms: _296  and  _297
REMARK  122  A    between atoms: _297  and  _298
REMARK  123  A    between atoms: _298  and  _299
REMARK  124  A    between atoms: _308  and  _310
REMARK  125  A    between atoms: _310  and  _311
REMARK  126  A    between atoms: _310  and  _313
REMARK  127  A    between atoms: _313  and  _314
REMARK  128  A    between atoms: _317  and  _319
REMARK  129  A    between atoms: _319  and  _320
REMARK  130  A    between atoms: _319  and  _322
REMARK  131  A    between atoms: _322  and  _323
REMARK  132  A    between atoms: _326  and  _328
REMARK  133  A    between atoms: _328  and  _329
REMARK  134  A    between atoms: _328  and  _331
REMARK  135  A    between atoms: _331  and  _332
REMARK  136  A    between atoms: _335  and  _337
REMARK  137  A    between atoms: _337  and  _338
REMARK  138  A    between atoms: _337  and  _340
REMARK  139  A    between atoms: _340  and  _341
REMARK  140  A    between atoms: _344  and  _346
REMARK  141  A    between atoms: _346  and  _347
REMARK  142  A    between atoms: _349  and  _351
REMARK  143  A    between atoms: _351  and  _352
REMARK  144  A    between atoms: _355  and  _357
REMARK  145  A    between atoms: _357  and  _358
REMARK  146  A    between atoms: _357  and  _360
REMARK  147  A    between atoms: _360  and  _361
REMARK  148  A    between atoms: _364  and  _366
REMARK  149  A    between atoms: _366  and  _367
REMARK  150  A    between atoms: _366  and  _369
REMARK  151  A    between atoms: _369  and  _370
REMARK  152  A    between atoms: _373  and  _375
REMARK  153  A    between atoms: _375  and  _376
REMARK  154  A    between atoms: _375  and  _378
REMARK  155  A    between atoms: _378  and  _379
REMARK  156  A    between atoms: _382  and  _384
REMARK  157  A    between atoms: _384  and  _385
REMARK  158  A    between atoms: _384  and  _387
REMARK  159  A    between atoms: _390  and  _392
REMARK  160  A    between atoms: _392  and  _393
REMARK  161  A    between atoms: _392  and  _395
REMARK  162  A    between atoms: _395  and  _396
REMARK  163  A    between atoms: _399  and  _401
REMARK  164  A    between atoms: _401  and  _402
REMARK  165  A    between atoms: _401  and  _404
REMARK  166  A    between atoms: _404  and  _405
REMARK  167  A    between atoms: _405  and  _406
REMARK  168  A    between atoms: _406  and  _407
REMARK  169  A    between atoms: _407  and  _408
REMARK  170  A    between atoms: _412  and  _414
REMARK  171  A    between atoms: _414  and  _415
REMARK  172  A    between atoms: _414  and  _417
REMARK  173  A    between atoms: _417  and  _418
REMARK  174  A    between atoms: _418  and  _419
REMARK  175  A    between atoms: _421  and  _423
REMARK  176  A    between atoms: _423  and  _424
REMARK  177  A    between atoms: _423  and  _426
REMARK  178  A    between atoms: _426  and  _427
REMARK  179  A    between atoms: _430  and  _432
REMARK  180  A    between atoms: _432  and  _433
REMARK  181  A    between atoms: _435  and  _437
REMARK  182  A    between atoms: _437  and  _438
REMARK  183  A    between atoms: _440  and  _442
REMARK  184  A    between atoms: _442  and  _443
REMARK  185  A    between atoms: _442  and  _445
REMARK  186  A    between atoms: _445  and  _446
REMARK  187  A    between atoms: _449  and  _451
REMARK  188  A    between atoms: _451  and  _452
REMARK  189  A    between atoms: _454  and  _456
REMARK  190  A    between atoms: _456  and  _457
REMARK  191  A    between atoms: _459  and  _461
REMARK  192  A    between atoms: _461  and  _462
REMARK  193  A    between atoms: _461  and  _464
REMARK  194  A    between atoms: _464  and  _465
REMARK  195  A    between atoms: _471  and  _473
REMARK  196  A    between atoms: _473  and  _474
REMARK  197  A    between atoms: _473  and  _476
REMARK  198  A    between atoms: _476  and  _477
REMARK  199  A    between atoms: _477  and  _478
REMARK  200  A    between atoms: _480  and  _482
REMARK  201  A    between atoms: _482  and  _483
REMARK  202  A    between atoms: _482  and  _485
REMARK  203  A    between atoms: _488  and  _490
REMARK  204  A    between atoms: _490  and  _491
REMARK  205  A    between atoms: _490  and  _493
REMARK  206  A    between atoms: _493  and  _494
REMARK  207  A    between atoms: _497  and  _499
REMARK  208  A    between atoms: _499  and  _500
REMARK  209  A    between atoms: _499  and  _502
REMARK  210  A    between atoms: _502  and  _503
REMARK  211  A    between atoms: _507  and  _508
REMARK  212  A    between atoms: _513  and  _515
REMARK  213  A    between atoms: _515  and  _516
REMARK  214  A    between atoms: _515  and  _518
REMARK  215  A    between atoms: _521  and  _523
REMARK  216  A    between atoms: _523  and  _524
REMARK  217  A    between atoms: _523  and  _526
REMARK  218  A    between atoms: _526  and  _527
REMARK  219  A    between atoms: _532  and  _534
REMARK  220  A    between atoms: _534  and  _535
REMARK  221  A    between atoms: _534  and  _537
REMARK  222  A    between atoms: _537  and  _538
REMARK  223  A    between atoms: _541  and  _543
REMARK  224  A    between atoms: _543  and  _544
REMARK  225  A    between atoms: _543  and  _546
REMARK  226  A    between atoms: _546  and  _547
REMARK  227  A    between atoms: _550  and  _552
REMARK  228  A    between atoms: _552  and  _553
REMARK  229  A    between atoms: _555  and  _557
REMARK  230  A    between atoms: _557  and  _558
REMARK  231  A    between atoms: _557  and  _560
REMARK  232  A    between atoms: _560  and  _561
REMARK  233  A    between atoms: _561  and  _562
REMARK  234  A    between atoms: _562  and  _563
REMARK  235  A    between atoms: _572  and  _574
REMARK  236  A    between atoms: _574  and  _575
REMARK  237  A    between atoms: _574  and  _577
REMARK  238  A    between atoms: _577  and  _578
REMARK                            x       y       z     vdW  Elec       q    Type
REMARK                         _______ _______ _______ _____ _____    ______ ____
ROOT
ATOM      1  C   ALA A   6      -9.576 -20.987 -20.771  0.00  0.00    +0.241 C 
ATOM      2  N   ASP A   7      -9.085 -22.090 -20.205  0.00  0.00    -0.297 N 
ATOM      3  H   ASP A   7      -9.621 -22.566 -19.452  0.00  0.00    +0.150 HD
ATOM      4  O   ALA A   6      -8.960 -20.384 -21.649  0.00  0.00    -0.273 OA
ENDROOT
BRANCH   1   5
ATOM      5  CA  ALA A   6     -10.932 -20.533 -20.302  0.00  0.00    +0.149 C 
ATOM      6  CB  ALA A   6     -11.924 -20.623 -21.456  0.00  0.00    +0.031 C 
BRANCH   5   9
ATOM      7  C   GLY A   5     -10.877 -18.820 -18.541  0.00  0.00    +0.243 C 
ATOM      8  O   GLY A   5     -10.981 -19.688 -17.661  0.00  0.00    -0.273 OA
ATOM      9  N   ALA A   6     -10.864 -19.163 -19.801  0.00  0.00    -0.297 N 
ATOM     10  H   ALA A   6     -10.800 -18.399 -20.504  0.00  0.00    +0.150 HD
BRANCH   7  11
ATOM     11  CA  GLY A   5     -10.727 -17.378 -18.199  0.00  0.00    +0.176 C 
BRANCH  11  13
ATOM     12  C   THR A   4      -9.451 -16.225 -19.914  0.00  0.00    +0.243 C 
ATOM     13  N   GLY A   5     -10.610 -16.461 -19.317  0.00  0.00    -0.295 N 
ATOM     14  H   GLY A   5     -11.462 -15.974 -19.660  0.00  0.00    +0.150 HD
ATOM     15  O   THR A   4      -8.406 -16.719 -19.510  0.00  0.00    -0.273 OA
BRANCH  12  16
ATOM     16  CA  THR A   4      -9.362 -15.365 -21.155  0.00  0.00    +0.176 C 
BRANCH  16  18
ATOM     17  C   ASP A   3     -11.297 -16.275 -22.358  0.00  0.00    +0.241 C 
ATOM     18  N   THR A   4     -10.647 -15.284 -21.766  0.00  0.00    -0.295 N 
ATOM     19  H   THR A   4     -11.120 -14.358 -21.745  0.00  0.00    +0.150 HD
ATOM     20  O   ASP A   3     -10.771 -17.397 -22.354  0.00  0.00    -0.273 OA
BRANCH  17  21
ATOM     21  CA  ASP A   3     -12.638 -16.055 -23.007  0.00  0.00    +0.160 C 
BRANCH  21  24
ATOM     22  C   LEU A   2     -13.118 -14.684 -24.993  0.00  0.00    +0.241 C 
ATOM     23  O   LEU A   2     -13.599 -13.740 -24.351  0.00  0.00    -0.273 OA
ATOM     24  N   ASP A   3     -12.553 -15.758 -24.433  0.00  0.00    -0.297 N 
ATOM     25  H   ASP A   3     -12.027 -16.415 -25.044  0.00  0.00    +0.150 HD
BRANCH  22  26
ATOM     26  CA  LEU A   2     -13.227 -14.670 -26.517  0.00  0.00    +0.149 C 
BRANCH  26  29
ATOM     27  C   LEU A   1     -15.356 -15.807 -26.837  0.00  0.00    +0.238 C 
ATOM     28  O   LEU A   1     -14.873 -16.914 -26.583  0.00  0.00    -0.274 OA
ATOM     29  N   LEU A   2     -14.656 -14.690 -26.875  0.00  0.00    -0.297 N 
ATOM     30  H   LEU A   2     -15.122 -13.806 -27.163  0.00  0.00    +0.150 HD
BRANCH  27  31
ATOM     31  CA  LEU A   1     -16.858 -15.705 -27.089  0.00  0.00    +0.145 C 
BRANCH  31  32
ATOM     32  N   LEU A   1     -17.277 -16.614 -28.140  0.00  0.00    -0.238 NA
ATOM     33  H   LEU A   1     -17.481 -17.598 -27.874  0.00  0.00    +0.142 HD
ENDBRANCH  31  32
BRANCH  31  34
ATOM     34  CB  LEU A   1     -17.652 -16.088 -25.829  0.00  0.00    +0.026 C 
BRANCH  34  35
ATOM     35  CG  LEU A   1     -17.427 -15.316 -24.570  0.00  0.00    +0.002 C 
ATOM     36  CD2 LEU A   1     -18.197 -16.043 -23.467  0.00  0.00    +0.000 C 
ATOM     37  CD1 LEU A   1     -17.919 -13.920 -24.735  0.00  0.00    +0.000 C 
ENDBRANCH  34  35
ENDBRANCH  31  34
ENDBRANCH  27  31
ENDBRANCH  26  29
BRANCH  26  38
ATOM     38  CB  LEU A   2     -12.529 -13.451 -27.113  0.00  0.00    +0.029 C 
BRANCH  38  39
ATOM     39  CG  LEU A   2     -12.637 -13.273 -28.617  0.00  0.00    +0.002 C 
ATOM     40  CD2 LEU A   2     -11.930 -12.015 -29.091  0.00  0.00    +0.000 C 
ATOM     41  CD1 LEU A   2     -12.079 -14.488 -29.333  0.00  0.00    +0.000 C 
ENDBRANCH  38  39
ENDBRANCH  26  38
ENDBRANCH  22  26
ENDBRANCH  21  24
BRANCH  21  42
ATOM     42  CB  ASP A   3     -13.516 -17.273 -22.867  0.00  0.00    +0.143 C 
BRANCH  42  43
ATOM     43  CG  ASP A   3     -13.996 -17.600 -21.472  0.00  0.00    +0.367 C 
ATOM     44  OD2 ASP A   3     -13.424 -17.042 -20.542  0.00  0.00    -0.246 OA
ATOM     45  OD1 ASP A   3     -14.921 -18.431 -21.327  0.00  0.00    -0.246 OA
ENDBRANCH  42  43
ENDBRANCH  21  42
ENDBRANCH  17  21
ENDBRANCH  16  18
BRANCH  16  46
ATOM     46  CB  THR A   4      -8.793 -13.981 -20.797  0.00  0.00    +0.137 C 
ATOM     47  CG2 THR A   4      -8.605 -13.149 -22.056  0.00  0.00    +0.034 C 
BRANCH  46  48
ATOM     48  OG1 THR A   4      -9.664 -13.290 -19.916  0.00  0.00    -0.382 OA
ATOM     49  HG1 THR A   4      -9.774 -13.815 -19.084  0.00  0.00    +0.210 HD
ENDBRANCH  46  48
ENDBRANCH  16  46
ENDBRANCH  12  16
ENDBRANCH  11  13
ENDBRANCH   7  11
ENDBRANCH   5   9
ENDBRANCH   1   5
BRANCH   2  50
ATOM     50  CA  ASP A   7      -7.816 -22.629 -20.629  0.00  0.00    +0.160 C 
BRANCH  50  51
ATOM     51  C   ASP A   7      -7.890 -23.129 -22.064  0.00  0.00    +0.241 C 
ATOM     52  N   ASP A   8      -9.018 -23.693 -22.414  0.00  0.00    -0.297 N 
ATOM     53  H   ASP A   8      -9.817 -23.584 -21.757  0.00  0.00    +0.150 HD
ATOM     54  O   ASP A   7      -6.925 -23.034 -22.828  0.00  0.00    -0.273 OA
BRANCH  52  55
ATOM     55  CA  ASP A   8      -9.270 -24.456 -23.625  0.00  0.00    +0.160 C 
BRANCH  55  56
ATOM     56  C   ASP A   8     -10.432 -23.835 -24.433  0.00  0.00    +0.241 C 
ATOM     57  O   ASP A   8     -11.196 -23.002 -23.965  0.00  0.00    -0.273 OA
ATOM     58  N   THR A   9     -10.492 -24.205 -25.685  0.00  0.00    -0.295 N 
ATOM     59  H   THR A   9      -9.730 -24.821 -26.034  0.00  0.00    +0.150 HD
BRANCH  58  60
ATOM     60  CA  THR A   9     -11.542 -23.827 -26.646  0.00  0.00    +0.176 C 
BRANCH  60  61
ATOM     61  C   THR A   9     -12.594 -24.911 -26.691  0.00  0.00    +0.243 C 
ATOM     62  N   VAL A  10     -13.866 -24.566 -26.508  0.00  0.00    -0.297 N 
ATOM     63  H   VAL A  10     -14.082 -23.559 -26.366  0.00  0.00    +0.150 HD
ATOM     64  O   THR A   9     -12.215 -26.075 -26.884  0.00  0.00    -0.273 OA
BRANCH  62  65
ATOM     65  CA  VAL A  10     -14.968 -25.506 -26.494  0.00  0.00    +0.149 C 
BRANCH  65  66
ATOM     66  C   VAL A  10     -16.048 -25.024 -27.416  0.00  0.00    +0.241 C 
ATOM     67  O   VAL A  10     -16.512 -23.886 -27.287  0.00  0.00    -0.273 OA
ATOM     68  N   ILE A  11     -16.451 -25.858 -28.352  0.00  0.00    -0.298 N 
ATOM     69  H   ILE A  11     -16.010 -26.800 -28.352  0.00  0.00    +0.150 HD
BRANCH  68  70
ATOM     70  CA  ILE A  11     -17.452 -25.608 -29.394  0.00  0.00    +0.137 C 
BRANCH  70  71
ATOM     71  CB  ILE A  11     -16.744 -25.717 -30.754  0.00  0.00    +0.026 C 
ATOM     72  CG2 ILE A  11     -17.699 -25.370 -31.872  0.00  0.00    +0.002 C 
BRANCH  71  73
ATOM     73  CG1 ILE A  11     -15.491 -24.830 -30.868  0.00  0.00    +0.002 C 
ATOM     74  CD1 ILE A  11     -15.776 -23.351 -30.975  0.00  0.00    +0.000 C 
ENDBRANCH  71  73
ENDBRANCH  70  71
BRANCH  70  75
ATOM     75  C   ILE A  11     -18.641 -26.510 -29.168  0.00  0.00    +0.227 C 
ATOM     76  O   ILE A  11     -18.498 -27.657 -28.723  0.00  0.00    -0.286 OA
ENDBRANCH  70  75
ENDBRANCH  68  70
ENDBRANCH  65  66
BRANCH  65  77
ATOM     77  CB  VAL A  10     -15.585 -25.688 -25.057  0.00  0.00    +0.027 C 
ATOM     78  CG2 VAL A  10     -14.540 -25.730 -23.996  0.00  0.00    +0.002 C 
ATOM     79  CG1 VAL A  10     -16.449 -26.940 -25.069  0.00  0.00    +0.002 C 
ENDBRANCH  65  77
ENDBRANCH  62  65
ENDBRANCH  60  61
BRANCH  60  80
ATOM     80  CB  THR A   9     -10.885 -23.655 -28.016  0.00  0.00    +0.137 C 
ATOM     81  CG2 THR A   9     -11.853 -23.419 -29.130  0.00  0.00    +0.034 C 
BRANCH  80  82
ATOM     82  OG1 THR A   9      -9.990 -22.508 -27.978  0.00  0.00    -0.382 OA
ATOM     83  HG1 THR A   9      -9.563 -22.394 -28.864  0.00  0.00    +0.210 HD
ENDBRANCH  80  82
ENDBRANCH  60  80
ENDBRANCH  58  60
ENDBRANCH  55  56
BRANCH  55  84
ATOM     84  CB  ASP A   8      -9.664 -25.875 -23.263  0.00  0.00    +0.143 C 
BRANCH  84  85
ATOM     85  CG  ASP A   8      -8.716 -26.553 -22.303  0.00  0.00    +0.367 C 
ATOM     86  OD2 ASP A   8      -9.173 -27.094 -21.266  0.00  0.00    -0.246 OA
ATOM     87  OD1 ASP A   8      -7.498 -26.530 -22.586  0.00  0.00    -0.246 OA
ENDBRANCH  84  85
ENDBRANCH  55  84
ENDBRANCH  52  55
ENDBRANCH  50  51
BRANCH  50  88
ATOM     88  CB  ASP A   7      -7.342 -23.778 -19.745  0.00  0.00    +0.143 C 
BRANCH  88  89
ATOM     89  CG  ASP A   7      -7.113 -23.433 -18.288  0.00  0.00    +0.367 C 
ATOM     90  OD2 ASP A   7      -7.247 -24.383 -17.475  0.00  0.00    -0.246 OA
ATOM     91  OD1 ASP A   7      -6.806 -22.277 -17.937  0.00  0.00    -0.246 OA
ENDBRANCH  88  89
ENDBRANCH  50  88
ENDBRANCH   2  50
TORSDOF 39
REMARK  Name = ../refined-set-2016/3nu6/3nu6_pocket.pdb
REMARK  238 active torsions:
REMARK  status: ('A' for Active; 'I' for Inactive)
REMARK    1  A    between atoms: _1  and  _3
REMARK    2  A    between atoms: _3  and  _4
REMARK    3  A    between atoms: _3  and  _6
REMARK    4  A    between atoms: _6  and  _7
REMARK    5  A    between atoms: _7  and  _8
REMARK    6  A    between atoms: _8  and  _9
REMARK    7  A    between atoms: _18  and  _20
REMARK    8  A    between atoms: _20  and  _21
REMARK    9  A    between atoms: _20  and  _23
REMARK   10  A    between atoms: _23  and  _24
REMARK   11  A    between atoms: _27  and  _29
REMARK   12  A    between atoms: _29  and  _30
REMARK   13  A    between atoms: _29  and  _32
REMARK   14  A    between atoms: _32  and  _33
REMARK   15  A    between atoms: _36  and  _38
REMARK   16  A    between atoms: _38  and  _39
REMARK   17  A    between atoms: _38  and  _41
REMARK   18  A    between atoms: _41  and  _42
REMARK   19  A    between atoms: _45  and  _47
REMARK   20  A    between atoms: _47  and  _48
REMARK   21  A    between atoms: _47  and  _50
REMARK   22  A    between atoms: _50  and  _51
REMARK   23  A    between atoms: _54  and  _56
REMARK   24  A    between atoms: _56  and  _57
REMARK   25  A    between atoms: _59  and  _61
REMARK   26  A    between atoms: _61  and  _62
REMARK   27  A    between atoms: _65  and  _67
REMARK   28  A    between atoms: _67  and  _68
REMARK   29  A    between atoms: _67  and  _70
REMARK   30  A    between atoms: _70  and  _71
REMARK   31  A    between atoms: _74  and  _76
REMARK   32  A    between atoms: _76  and  _77
REMARK   33  A    between atoms: _76  and  _79
REMARK   34  A    between atoms: _79  and  _80
REMARK   35  A    between atoms: _83  and  _85
REMARK   36  A    between atoms: _85  and  _86
REMARK   37  A    between atoms: _85  and  _88
REMARK   38  A    between atoms: _88  and  _89
REMARK   39  A    between atoms: _92  and  _94
REMARK   40  A    between atoms: _94  and  _95
REMARK   41  A    between atoms: _94  and  _97
REMARK   42  A    between atoms: _100  and  _102
REMARK   43  A    between atoms: _102  and  _103
REMARK   44  A    between atoms: _102  and  _105
REMARK   45  A    between atoms: _106  and  _107
REMARK   46  A    between atoms: _107  and  _108
REMARK   47  A    between atoms: _108  and  _109
REMARK   48  A    between atoms: _113  and  _115
REMARK   49  A    between atoms: _115  and  _116
REMARK   50  A    between atoms: _115  and  _118
REMARK   51  A    between atoms: _118  and  _119
REMARK   52  A    between atoms: _119  and  _120
REMARK   53  A    between atoms: _122  and  _124
REMARK   54  A    between atoms: _124  and  _125
REMARK   55  A    between atoms: _124  and  _127
REMARK   56  A    between atoms: _127  and  _128
REMARK   57  A    between atoms: _131  and  _133
REMARK   58  A    between atoms: _133  and  _134
REMARK   59  A    between atoms: _136  and  _138
REMARK   60  A    between atoms: _138  and  _139
REMARK   61  A    between atoms: _141  and  _143
REMARK   62  A    between atoms: _143  and  _144
REMARK   63  A    between atoms: _143  and  _146
REMARK   64  A    between atoms: _146  and  _147
REMARK   65  A    between atoms: _150  and  _152
REMARK   66  A    between atoms: _152  and  _153
REMARK   67  A    between atoms: _155  and  _157
REMARK   68  A    between atoms: _157  and  _158
REMARK   69  A    between atoms: _160  and  _162
REMARK   70  A    between atoms: _162  and  _163
REMARK   71  A    between atoms: _162  and  _165
REMARK   72  A    between atoms: _165  and  _166
REMARK   73  A    between atoms: _172  and  _174
REMARK   74  A    between atoms: _174  and  _175
REMARK   75  A    between atoms: _174  and  _177
REMARK   76  A    between atoms: _177  and  _178
REMARK   77  A    between atoms: _178  and  _179
REMARK   78  A    between atoms: _181  and  _183
REMARK   79  A    between atoms: _183  and  _184
REMARK   80  A    between atoms: _183  and  _186
REMARK   81  A    between atoms: _189  and  _191
REMARK   82  A    between atoms: _191  and  _192
REMARK   83  A    between atoms: _191  and  _194
REMARK   84  A    between atoms: _194  and  _195
REMARK   85  A    between atoms: _199  and  _200
REMARK   86  A    between atoms: _205  and  _207
REMARK   87  A    between atoms: _207  and  _208
REMARK   88  A    between atoms: _207  and  _210
REMARK   89  A    between atoms: _210  and  _211
REMARK   90  A    between atoms: _215  and  _216
REMARK   91  A    between atoms: _221  and  _223
REMARK   92  A    between atoms: _223  and  _224
REMARK   93  A    between atoms: _223  and  _226
REMARK   94  A    between atoms: _229  and  _231
REMARK   95  A    between atoms: _231  and  _232
REMARK   96  A    between atoms: _231  and  _234
REMARK   97  A    between atoms: _234  and  _235
REMARK   98  A    between atoms: _240  and  _242
REMARK   99  A    between atoms: _242  and  _243
REMARK  100  A    between atoms: _242  and  _245
REMARK  101  A    between atoms: _245  and  _246
REMARK  102  A    between atoms: _249  and  _251
REMARK  103  A    between atoms: _251  and  _252
REMARK  104  A    between atoms: _251  and  _254
REMARK  105  A    between atoms: _254  and  _255
REMARK  106  A    between atoms: _258  and  _260
REMARK  107  A    between atoms: _260  and  _261
REMARK  108  A    between atoms: _263  and  _265
REMARK  109  A    between atoms: _265  and  _266
REMARK  110  A    between atoms: _265  and  _268
REMARK  111  A    between atoms: _268  and  _269
REMARK  112  A    between atoms: _269  and  _270
REMARK  113  A    between atoms: _270  and  _271
REMARK  114  A    between atoms: _280  and  _282
REMARK  115  A    between atoms: _282  and  _283
REMARK  116  A    between atoms: _282  and  _285
REMARK  117  A    between atoms: _285  and  _286
REMARK  118  A    between atoms: _291  and  _293
REMARK  119  A    between atoms: _293  and  _294
REMARK  120  A    between atoms: _293  and  _296
REMARK  121  A    between atoms: _296  and  _297
REMARK  122  A    between atoms: _297  and  _298
REMARK  123  A    between atoms: _298  and  _299
REMARK  124  A    between atoms: _308  and  _310
REMARK  125  A    between atoms: _310  and  _311
REMARK  126  A    between atoms: _310  and  _313
REMARK  127  A    between atoms: _313  and  _314
REMARK  128  A    between atoms: _317  and  _319
REMARK  129  A    between atoms: _319  and  _320
REMARK  130  A    between atoms: _319  and  _322
REMARK  131  A    between atoms: _322  and  _323
REMARK  132  A    between atoms: _326  and  _328
REMARK  133  A    between atoms: _328  and  _329
REMARK  134  A    between atoms: _328  and  _331
REMARK  135  A    between atoms: _331  and  _332
REMARK  136  A    between atoms: _335  and  _337
REMARK  137  A    between atoms: _337  and  _338
REMARK  138  A    between atoms: _337  and  _340
REMARK  139  A    between atoms: _340  and  _341
REMARK  140  A    between atoms: _344  and  _346
REMARK  141  A    between atoms: _346  and  _347
REMARK  142  A    between atoms: _349  and  _351
REMARK  143  A    between atoms: _351  and  _352
REMARK  144  A    between atoms: _355  and  _357
REMARK  145  A    between atoms: _357  and  _358
REMARK  146  A    between atoms: _357  and  _360
REMARK  147  A    between atoms: _360  and  _361
REMARK  148  A    between atoms: _364  and  _366
REMARK  149  A    between atoms: _366  and  _367
REMARK  150  A    between atoms: _366  and  _369
REMARK  151  A    between atoms: _369  and  _370
REMARK  152  A    between atoms: _373  and  _375
REMARK  153  A    between atoms: _375  and  _376
REMARK  154  A    between atoms: _375  and  _378
REMARK  155  A    between atoms: _378  and  _379
REMARK  156  A    between atoms: _382  and  _384
REMARK  157  A    between atoms: _384  and  _385
REMARK  158  A    between atoms: _384  and  _387
REMARK  159  A    between atoms: _390  and  _392
REMARK  160  A    between atoms: _392  and  _393
REMARK  161  A    between atoms: _392  and  _395
REMARK  162  A    between atoms: _395  and  _396
REMARK  163  A    between atoms: _399  and  _401
REMARK  164  A    between atoms: _401  and  _402
REMARK  165  A    between atoms: _401  and  _404
REMARK  166  A    between atoms: _404  and  _405
REMARK  167  A    between atoms: _405  and  _406
REMARK  168  A    between atoms: _406  and  _407
REMARK  169  A    between atoms: _407  and  _408
REMARK  170  A    between atoms: _412  and  _414
REMARK  171  A    between atoms: _414  and  _415
REMARK  172  A    between atoms: _414  and  _417
REMARK  173  A    between atoms: _417  and  _418
REMARK  174  A    between atoms: _418  and  _419
REMARK  175  A    between atoms: _421  and  _423
REMARK  176  A    between atoms: _423  and  _424
REMARK  177  A    between atoms: _423  and  _426
REMARK  178  A    between atoms: _426  and  _427
REMARK  179  A    between atoms: _430  and  _432
REMARK  180  A    between atoms: _432  and  _433
REMARK  181  A    between atoms: _435  and  _437
REMARK  182  A    between atoms: _437  and  _438
REMARK  183  A    between atoms: _440  and  _442
REMARK  184  A    between atoms: _442  and  _443
REMARK  185  A    between atoms: _442  and  _445
REMARK  186  A    between atoms: _445  and  _446
REMARK  187  A    between atoms: _449  and  _451
REMARK  188  A    between atoms: _451  and  _452
REMARK  189  A    between atoms: _454  and  _456
REMARK  190  A    between atoms: _456  and  _457
REMARK  191  A    between atoms: _459  and  _461
REMARK  192  A    between atoms: _461  and  _462
REMARK  193  A    between atoms: _461  and  _464
REMARK  194  A    between atoms: _464  and  _465
REMARK  195  A    between atoms: _471  and  _473
REMARK  196  A    between atoms: _473  and  _474
REMARK  197  A    between atoms: _473  and  _476
REMARK  198  A    between atoms: _476  and  _477
REMARK  199  A    between atoms: _477  and  _478
REMARK  200  A    between atoms: _480  and  _482
REMARK  201  A    between atoms: _482  and  _483
REMARK  202  A    between atoms: _482  and  _485
REMARK  203  A    between atoms: _488  and  _490
REMARK  204  A    between atoms: _490  and  _491
REMARK  205  A    between atoms: _490  and  _493
REMARK  206  A    between atoms: _493  and  _494
REMARK  207  A    between atoms: _497  and  _499
REMARK  208  A    between atoms: _499  and  _500
REMARK  209  A    between atoms: _499  and  _502
REMARK  210  A    between atoms: _502  and  _503
REMARK  211  A    between atoms: _507  and  _508
REMARK  212  A    between atoms: _513  and  _515
REMARK  213  A    between atoms: _515  and  _516
REMARK  214  A    between atoms: _515  and  _518
REMARK  215  A    between atoms: _521  and  _523
REMARK  216  A    between atoms: _523  and  _524
REMARK  217  A    between atoms: _523  and  _526
REMARK  218  A    between atoms: _526  and  _527
REMARK  219  A    between atoms: _532  and  _534
REMARK  220  A    between atoms: _534  and  _535
REMARK  221  A    between atoms: _534  and  _537
REMARK  222  A    between atoms: _537  and  _538
REMARK  223  A    between atoms: _541  and  _543
REMARK  224  A    between atoms: _543  and  _544
REMARK  225  A    between atoms: _543  and  _546
REMARK  226  A    between atoms: _546  and  _547
REMARK  227  A    between atoms: _550  and  _552
REMARK  228  A    between atoms: _552  and  _553
REMARK  229  A    between atoms: _555  and  _557
REMARK  230  A    between atoms: _557  and  _558
REMARK  231  A    between atoms: _557  and  _560
REMARK  232  A    between atoms: _560  and  _561
REMARK  233  A    between atoms: _561  and  _562
REMARK  234  A    between atoms: _562  and  _563
REMARK  235  A    between atoms: _572  and  _574
REMARK  236  A    between atoms: _574  and  _575
REMARK  237  A    between atoms: _574  and  _577
REMARK  238  A    between atoms: _577  and  _578
REMARK                            x       y       z     vdW  Elec       q    Type
REMARK                         _______ _______ _______ _____ _____    ______ ____
ROOT
ATOM      1  C   GLY A   5     -16.995 -24.408 -13.796  0.00  0.00    +0.243 C 
ATOM      2  O   GLY A   5     -16.909 -25.075 -12.769  0.00  0.00    -0.273 OA
ATOM      3  N   ILE A   6     -17.801 -23.374 -13.943  0.00  0.00    -0.297 N 
ATOM      4  H   ILE A   6     -17.880 -22.902 -14.866  0.00  0.00    +0.150 HD
ENDROOT
BRANCH   3   5
ATOM      5  CA  ILE A   6     -18.582 -22.894 -12.807  0.00  0.00    +0.149 C 
BRANCH   5   6
ATOM      6  C   ILE A   6     -19.567 -23.874 -12.281  0.00  0.00    +0.241 C 
ATOM      7  O   ILE A   6     -19.852 -23.861 -11.071  0.00  0.00    -0.273 OA
ATOM      8  N   GLY A   7     -20.081 -24.779 -13.093  0.00  0.00    -0.295 N 
ATOM      9  H   GLY A   7     -19.794 -24.802 -14.092  0.00  0.00    +0.150 HD
BRANCH   8  10
ATOM     10  CA  GLY A   7     -21.059 -25.754 -12.588  0.00  0.00    +0.176 C 
BRANCH  10  11
ATOM     11  C   GLY A   7     -20.493 -27.069 -12.151  0.00  0.00    +0.243 C 
ATOM     12  O   GLY A   7     -21.221 -27.916 -11.621  0.00  0.00    -0.273 OA
ATOM     13  N   GLY A   8     -19.220 -27.278 -12.342  0.00  0.00    -0.295 N 
ATOM     14  H   GLY A   8     -18.607 -26.494 -12.644  0.00  0.00    +0.150 HD
BRANCH  13  15
ATOM     15  CA  GLY A   8     -18.656 -28.589 -12.137  0.00  0.00    +0.176 C 
BRANCH  15  16
ATOM     16  C   GLY A   8     -17.887 -29.055 -13.342  0.00  0.00    +0.243 C 
ATOM     17  N   PHE A   9     -17.624 -30.350 -13.411  0.00  0.00    -0.297 N 
ATOM     18  H   PHE A   9     -17.954 -30.940 -12.620  0.00  0.00    +0.150 HD
ATOM     19  O   GLY A   8     -17.466 -28.289 -14.208  0.00  0.00    -0.273 OA
BRANCH  17  20
ATOM     20  CA  PHE A   9     -16.928 -31.018 -14.472  0.00  0.00    +0.153 C 
BRANCH  20  21
ATOM     21  C   PHE A   9     -17.875 -31.516 -15.549  0.00  0.00    +0.241 C 
ATOM     22  O   PHE A   9     -19.046 -31.797 -15.376  0.00  0.00    -0.273 OA
ATOM     23  N   MET A  10     -17.238 -31.604 -16.731  0.00  0.00    -0.298 N 
ATOM     24  H   MET A  10     -16.288 -31.204 -16.867  0.00  0.00    +0.150 HD
BRANCH  23  25
ATOM     25  CA  MET A  10     -17.926 -32.273 -17.794  0.00  0.00    +0.138 C 
BRANCH  25  26
ATOM     26  C   MET A  10     -16.987 -32.808 -18.849  0.00  0.00    +0.227 C 
ATOM     27  O   MET A  10     -15.912 -32.311 -19.130  0.00  0.00    -0.286 OA
ENDBRANCH  25  26
BRANCH  25  28
ATOM     28  CB  MET A  10     -18.927 -31.385 -18.459  0.00  0.00    +0.039 C 
BRANCH  28  29
ATOM     29  CG  MET A  10     -18.524 -30.257 -19.277  0.00  0.00    +0.060 C 
BRANCH  29  30
ATOM     30  SD  MET A  10     -20.006 -29.528 -20.063  0.00  0.00    -0.139 S 
ATOM     31  CE  MET A  10     -19.173 -29.238 -21.646  0.00  0.00    +0.069 C 
ENDBRANCH  29  30
ENDBRANCH  28  29
ENDBRANCH  25  28
ENDBRANCH  23  25
ENDBRANCH  20  21
BRANCH  20  32
ATOM     32  CB  PHE A   9     -16.113 -32.237 -13.919  0.00  0.00    +0.055 C 
BRANCH  32  33
ATOM     33  CG  PHE A   9     -15.115 -31.617 -12.948  0.00  0.00    -0.020 A 
ATOM     34  CD2 PHE A   9     -15.360 -31.649 -11.587  0.00  0.00    -0.004 A 
ATOM     35  CE2 PHE A   9     -14.440 -31.055 -10.742  0.00  0.00    -0.000 A 
ATOM     36  CZ  PHE A   9     -13.317 -30.444 -11.265  0.00  0.00    -0.000 A 
ATOM     37  CE1 PHE A   9     -13.044 -30.405 -12.617  0.00  0.00    -0.000 A 
ATOM     38  CD1 PHE A   9     -13.977 -31.019 -13.441  0.00  0.00    -0.004 A 
ENDBRANCH  32  33
ENDBRANCH  20  32
ENDBRANCH  17  20
ENDBRANCH  15  16
ENDBRANCH  13  15
ENDBRANCH  10  11
ENDBRANCH   8  10
ENDBRANCH   5   6
BRANCH   5  39
ATOM     39  CB  ILE A   6     -19.260 -21.558 -13.172  0.00  0.00    +0.027 C 
ATOM     40  CG2 ILE A   6     -20.532 -21.742 -13.944  0.00  0.00    +0.002 C 
BRANCH  39  41
ATOM     41  CG1 ILE A   6     -19.524 -20.716 -11.930  0.00  0.00    +0.002 C 
ATOM     42  CD1 ILE A   6     -18.191 -20.148 -11.400  0.00  0.00    +0.000 C 
ENDBRANCH  39  41
ENDBRANCH   5  39
ENDBRANCH   3   5
BRANCH   1  43
ATOM     43  CA  GLY A   5     -16.141 -24.720 -15.024  0.00  0.00    +0.176 C 
BRANCH  43  45
ATOM     44  C   GLY A   4     -14.547 -26.464 -15.386  0.00  0.00    +0.243 C 
ATOM     45  N   GLY A   5     -15.712 -26.085 -14.941  0.00  0.00    -0.295 N 
ATOM     46  H   GLY A   5     -16.346 -26.791 -14.515  0.00  0.00    +0.150 HD
ATOM     47  O   GLY A   4     -13.782 -25.656 -15.935  0.00  0.00    -0.273 OA
BRANCH  44  48
ATOM     48  CA  GLY A   4     -14.165 -27.906 -15.150  0.00  0.00    +0.176 C 
BRANCH  48  50
ATOM     49  C   ILE A   3     -13.876 -29.430 -17.025  0.00  0.00    +0.241 C 
ATOM     50  N   GLY A   4     -13.438 -28.401 -16.340  0.00  0.00    -0.295 N 
ATOM     51  H   GLY A   4     -12.563 -27.924 -16.639  0.00  0.00    +0.150 HD
ATOM     52  O   ILE A   3     -14.894 -30.013 -16.739  0.00  0.00    -0.273 OA
BRANCH  49  53
ATOM     53  CA  ILE A   3     -12.970 -29.889 -18.156  0.00  0.00    +0.149 C 
BRANCH  53  56
ATOM     54  C   MET A   2     -12.298 -32.225 -18.395  0.00  0.00    +0.241 C 
ATOM     55  O   MET A   2     -11.093 -31.972 -18.155  0.00  0.00    -0.273 OA
ATOM     56  N   ILE A   3     -13.249 -31.298 -18.480  0.00  0.00    -0.297 N 
ATOM     57  H   ILE A   3     -14.206 -31.573 -18.780  0.00  0.00    +0.150 HD
BRANCH  54  58
ATOM     58  CA  MET A   2     -12.693 -33.671 -18.592  0.00  0.00    +0.149 C 
BRANCH  58  60
ATOM     59  C   LYS A   1     -12.212 -34.538 -20.844  0.00  0.00    +0.238 C 
ATOM     60  N   MET A   2     -11.848 -34.226 -19.627  0.00  0.00    -0.297 N 
ATOM     61  H   MET A   2     -10.852 -34.394 -19.379  0.00  0.00    +0.150 HD
ATOM     62  O   LYS A   1     -13.369 -34.494 -21.247  0.00  0.00    -0.274 OA
BRANCH  59  63
ATOM     63  CA  LYS A   1     -11.070 -34.938 -21.767  0.00  0.00    +0.145 C 
BRANCH  63  64
ATOM     64  N   LYS A   1     -11.518 -35.992 -22.637  0.00  0.00    -0.238 NA
ATOM     65  H   LYS A   1     -12.533 -36.050 -22.858  0.00  0.00    +0.142 HD
ENDBRANCH  63  64
BRANCH  63  66
ATOM     66  CB  LYS A   1     -10.603 -33.709 -22.553  0.00  0.00    +0.026 C 
BRANCH  66  67
ATOM     67  CG  LYS A   1      -9.868 -32.677 -21.661  0.00  0.00    -0.000 C 
BRANCH  67  68
ATOM     68  CD  LYS A   1      -9.186 -31.589 -22.384  0.00  0.00    -0.024 C 
BRANCH  68  69
ATOM     69  CE  LYS A   1      -8.524 -30.617 -21.477  0.00  0.00    -0.086 C 
BRANCH  69  70
ATOM     70  NZ  LYS A   1      -7.204 -31.057 -21.010  0.00  0.00    +0.380 N 
ATOM     71  HZ1 LYS A   1      -6.800 -30.332 -20.383  0.00  0.00    -0.089 HD
ATOM     72  HZ2 LYS A   1      -7.302 -31.952 -20.490  0.00  0.00    -0.089 HD
ATOM     73  HZ3 LYS A   1      -6.577 -31.197 -21.828  0.00  0.00    -0.089 HD
ENDBRANCH  69  70
ENDBRANCH  68  69
ENDBRANCH  67  68
ENDBRANCH  66  67
ENDBRANCH  63  66
ENDBRANCH  59  63
ENDBRANCH  58  60
BRANCH  58  74
ATOM     74  CB  MET A   2     -12.499 -34.394 -17.238  0.00  0.00    +0.041 C 
BRANCH  74  75
ATOM     75  CG  MET A   2     -13.520 -33.982 -16.205  0.00  0.00    +0.060 C 
BRANCH  75  76
ATOM     76  SD  MET A   2     -15.135 -34.701 -16.252  0.00  0.00    -0.139 S 
ATOM     77  CE  MET A   2     -14.893 -36.355 -16.857  0.00  0.00    +0.069 C 
ENDBRANCH  75  76
ENDBRANCH  74  75
ENDBRANCH  58  74
ENDBRANCH  54  58
ENDBRANCH  53  56
BRANCH  53  78
ATOM     78  CB  ILE A   3     -13.118 -28.956 -19.378  0.00  0.00    +0.027 C 
ATOM     79  CG2 ILE A   3     -12.043 -29.312 -20.396  0.00  0.00    +0.002 C 
BRANCH  78  80
ATOM     80  CG1 ILE A   3     -14.518 -28.995 -19.958  0.00  0.00    +0.002 C 
ATOM     81  CD1 ILE A   3     -14.702 -28.002 -21.115  0.00  0.00    +0.000 C 
ENDBRANCH  78  80
ENDBRANCH  53  78
ENDBRANCH  49  53
ENDBRANCH  48  50
ENDBRANCH  44  48
ENDBRANCH  43  45
ENDBRANCH   1  43
TORSDOF 37
REMARK  Name = ../refined-set-2016/3nu6/3nu6_pocket.pdb
REMARK  238 active torsions:
REMARK  status: ('A' for Active; 'I' for Inactive)
REMARK    1  A    between atoms: _1  and  _3
REMARK    2  A    between atoms: _3  and  _4
REMARK    3  A    between atoms: _3  and  _6
REMARK    4  A    between atoms: _6  and  _7
REMARK    5  A    between atoms: _7  and  _8
REMARK    6  A    between atoms: _8  and  _9
REMARK    7  A    between atoms: _18  and  _20
REMARK    8  A    between atoms: _20  and  _21
REMARK    9  A    between atoms: _20  and  _23
REMARK   10  A    between atoms: _23  and  _24
REMARK   11  A    between atoms: _27  and  _29
REMARK   12  A    between atoms: _29  and  _30
REMARK   13  A    between atoms: _29  and  _32
REMARK   14  A    between atoms: _32  and  _33
REMARK   15  A    between atoms: _36  and  _38
REMARK   16  A    between atoms: _38  and  _39
REMARK   17  A    between atoms: _38  and  _41
REMARK   18  A    between atoms: _41  and  _42
REMARK   19  A    between atoms: _45  and  _47
REMARK   20  A    between atoms: _47  and  _48
REMARK   21  A    between atoms: _47  and  _50
REMARK   22  A    between atoms: _50  and  _51
REMARK   23  A    between atoms: _54  and  _56
REMARK   24  A    between atoms: _56  and  _57
REMARK   25  A    between atoms: _59  and  _61
REMARK   26  A    between atoms: _61  and  _62
REMARK   27  A    between atoms: _65  and  _67
REMARK   28  A    between atoms: _67  and  _68
REMARK   29  A    between atoms: _67  and  _70
REMARK   30  A    between atoms: _70  and  _71
REMARK   31  A    between atoms: _74  and  _76
REMARK   32  A    between atoms: _76  and  _77
REMARK   33  A    between atoms: _76  and  _79
REMARK   34  A    between atoms: _79  and  _80
REMARK   35  A    between atoms: _83  and  _85
REMARK   36  A    between atoms: _85  and  _86
REMARK   37  A    between atoms: _85  and  _88
REMARK   38  A    between atoms: _88  and  _89
REMARK   39  A    between atoms: _92  and  _94
REMARK   40  A    between atoms: _94  and  _95
REMARK   41  A    between atoms: _94  and  _97
REMARK   42  A    between atoms: _100  and  _102
REMARK   43  A    between atoms: _102  and  _103
REMARK   44  A    between atoms: _102  and  _105
REMARK   45  A    between atoms: _106  and  _107
REMARK   46  A    between atoms: _107  and  _108
REMARK   47  A    between atoms: _108  and  _109
REMARK   48  A    between atoms: _113  and  _115
REMARK   49  A    between atoms: _115  and  _116
REMARK   50  A    between atoms: _115  and  _118
REMARK   51  A    between atoms: _118  and  _119
REMARK   52  A    between atoms: _119  and  _120
REMARK   53  A    between atoms: _122  and  _124
REMARK   54  A    between atoms: _124  and  _125
REMARK   55  A    between atoms: _124  and  _127
REMARK   56  A    between atoms: _127  and  _128
REMARK   57  A    between atoms: _131  and  _133
REMARK   58  A    between atoms: _133  and  _134
REMARK   59  A    between atoms: _136  and  _138
REMARK   60  A    between atoms: _138  and  _139
REMARK   61  A    between atoms: _141  and  _143
REMARK   62  A    between atoms: _143  and  _144
REMARK   63  A    between atoms: _143  and  _146
REMARK   64  A    between atoms: _146  and  _147
REMARK   65  A    between atoms: _150  and  _152
REMARK   66  A    between atoms: _152  and  _153
REMARK   67  A    between atoms: _155  and  _157
REMARK   68  A    between atoms: _157  and  _158
REMARK   69  A    between atoms: _160  and  _162
REMARK   70  A    between atoms: _162  and  _163
REMARK   71  A    between atoms: _162  and  _165
REMARK   72  A    between atoms: _165  and  _166
REMARK   73  A    between atoms: _172  and  _174
REMARK   74  A    between atoms: _174  and  _175
REMARK   75  A    between atoms: _174  and  _177
REMARK   76  A    between atoms: _177  and  _178
REMARK   77  A    between atoms: _178  and  _179
REMARK   78  A    between atoms: _181  and  _183
REMARK   79  A    between atoms: _183  and  _184
REMARK   80  A    between atoms: _183  and  _186
REMARK   81  A    between atoms: _189  and  _191
REMARK   82  A    between atoms: _191  and  _192
REMARK   83  A    between atoms: _191  and  _194
REMARK   84  A    between atoms: _194  and  _195
REMARK   85  A    between atoms: _199  and  _200
REMARK   86  A    between atoms: _205  and  _207
REMARK   87  A    between atoms: _207  and  _208
REMARK   88  A    between atoms: _207  and  _210
REMARK   89  A    between atoms: _210  and  _211
REMARK   90  A    between atoms: _215  and  _216
REMARK   91  A    between atoms: _221  and  _223
REMARK   92  A    between atoms: _223  and  _224
REMARK   93  A    between atoms: _223  and  _226
REMARK   94  A    between atoms: _229  and  _231
REMARK   95  A    between atoms: _231  and  _232
REMARK   96  A    between atoms: _231  and  _234
REMARK   97  A    between atoms: _234  and  _235
REMARK   98  A    between atoms: _240  and  _242
REMARK   99  A    between atoms: _242  and  _243
REMARK  100  A    between atoms: _242  and  _245
REMARK  101  A    between atoms: _245  and  _246
REMARK  102  A    between atoms: _249  and  _251
REMARK  103  A    between atoms: _251  and  _252
REMARK  104  A    between atoms: _251  and  _254
REMARK  105  A    between atoms: _254  and  _255
REMARK  106  A    between atoms: _258  and  _260
REMARK  107  A    between atoms: _260  and  _261
REMARK  108  A    between atoms: _263  and  _265
REMARK  109  A    between atoms: _265  and  _266
REMARK  110  A    between atoms: _265  and  _268
REMARK  111  A    between atoms: _268  and  _269
REMARK  112  A    between atoms: _269  and  _270
REMARK  113  A    between atoms: _270  and  _271
REMARK  114  A    between atoms: _280  and  _282
REMARK  115  A    between atoms: _282  and  _283
REMARK  116  A    between atoms: _282  and  _285
REMARK  117  A    between atoms: _285  and  _286
REMARK  118  A    between atoms: _291  and  _293
REMARK  119  A    between atoms: _293  and  _294
REMARK  120  A    between atoms: _293  and  _296
REMARK  121  A    between atoms: _296  and  _297
REMARK  122  A    between atoms: _297  and  _298
REMARK  123  A    between atoms: _298  and  _299
REMARK  124  A    between atoms: _308  and  _310
REMARK  125  A    between atoms: _310  and  _311
REMARK  126  A    between atoms: _310  and  _313
REMARK  127  A    between atoms: _313  and  _314
REMARK  128  A    between atoms: _317  and  _319
REMARK  129  A    between atoms: _319  and  _320
REMARK  130  A    between atoms: _319  and  _322
REMARK  131  A    between atoms: _322  and  _323
REMARK  132  A    between atoms: _326  and  _328
REMARK  133  A    between atoms: _328  and  _329
REMARK  134  A    between atoms: _328  and  _331
REMARK  135  A    between atoms: _331  and  _332
REMARK  136  A    between atoms: _335  and  _337
REMARK  137  A    between atoms: _337  and  _338
REMARK  138  A    between atoms: _337  and  _340
REMARK  139  A    between atoms: _340  and  _341
REMARK  140  A    between atoms: _344  and  _346
REMARK  141  A    between atoms: _346  and  _347
REMARK  142  A    between atoms: _349  and  _351
REMARK  143  A    between atoms: _351  and  _352
REMARK  144  A    between atoms: _355  and  _357
REMARK  145  A    between atoms: _357  and  _358
REMARK  146  A    between atoms: _357  and  _360
REMARK  147  A    between atoms: _360  and  _361
REMARK  148  A    between atoms: _364  and  _366
REMARK  149  A    between atoms: _366  and  _367
REMARK  150  A    between atoms: _366  and  _369
REMARK  151  A    between atoms: _369  and  _370
REMARK  152  A    between atoms: _373  and  _375
REMARK  153  A    between atoms: _375  and  _376
REMARK  154  A    between atoms: _375  and  _378
REMARK  155  A    between atoms: _378  and  _379
REMARK  156  A    between atoms: _382  and  _384
REMARK  157  A    between atoms: _384  and  _385
REMARK  158  A    between atoms: _384  and  _387
REMARK  159  A    between atoms: _390  and  _392
REMARK  160  A    between atoms: _392  and  _393
REMARK  161  A    between atoms: _392  and  _395
REMARK  162  A    between atoms: _395  and  _396
REMARK  163  A    between atoms: _399  and  _401
REMARK  164  A    between atoms: _401  and  _402
REMARK  165  A    between atoms: _401  and  _404
REMARK  166  A    between atoms: _404  and  _405
REMARK  167  A    between atoms: _405  and  _406
REMARK  168  A    between atoms: _406  and  _407
REMARK  169  A    between atoms: _407  and  _408
REMARK  170  A    between atoms: _412  and  _414
REMARK  171  A    between atoms: _414  and  _415
REMARK  172  A    between atoms: _414  and  _417
REMARK  173  A    between atoms: _417  and  _418
REMARK  174  A    between atoms: _418  and  _419
REMARK  175  A    between atoms: _421  and  _423
REMARK  176  A    between atoms: _423  and  _424
REMARK  177  A    between atoms: _423  and  _426
REMARK  178  A    between atoms: _426  and  _427
REMARK  179  A    between atoms: _430  and  _432
REMARK  180  A    between atoms: _432  and  _433
REMARK  181  A    between atoms: _435  and  _437
REMARK  182  A    between atoms: _437  and  _438
REMARK  183  A    between atoms: _440  and  _442
REMARK  184  A    between atoms: _442  and  _443
REMARK  185  A    between atoms: _442  and  _445
REMARK  186  A    between atoms: _445  and  _446
REMARK  187  A    between atoms: _449  and  _451
REMARK  188  A    between atoms: _451  and  _452
REMARK  189  A    between atoms: _454  and  _456
REMARK  190  A    between atoms: _456  and  _457
REMARK  191  A    between atoms: _459  and  _461
REMARK  192  A    between atoms: _461  and  _462
REMARK  193  A    between atoms: _461  and  _464
REMARK  194  A    between atoms: _464  and  _465
REMARK  195  A    between atoms: _471  and  _473
REMARK  196  A    between atoms: _473  and  _474
REMARK  197  A    between atoms: _473  and  _476
REMARK  198  A    between atoms: _476  and  _477
REMARK  199  A    between atoms: _477  and  _478
REMARK  200  A    between atoms: _480  and  _482
REMARK  201  A    between atoms: _482  and  _483
REMARK  202  A    between atoms: _482  and  _485
REMARK  203  A    between atoms: _488  and  _490
REMARK  204  A    between atoms: _490  and  _491
REMARK  205  A    between atoms: _490  and  _493
REMARK  206  A    between atoms: _493  and  _494
REMARK  207  A    between atoms: _497  and  _499
REMARK  208  A    between atoms: _499  and  _500
REMARK  209  A    between atoms: _499  and  _502
REMARK  210  A    between atoms: _502  and  _503
REMARK  211  A    between atoms: _507  and  _508
REMARK  212  A    between atoms: _513  and  _515
REMARK  213  A    between atoms: _515  and  _516
REMARK  214  A    between atoms: _515  and  _518
REMARK  215  A    between atoms: _521  and  _523
REMARK  216  A    between atoms: _523  and  _524
REMARK  217  A    between atoms: _523  and  _526
REMARK  218  A    between atoms: _526  and  _527
REMARK  219  A    between atoms: _532  and  _534
REMARK  220  A    between atoms: _534  and  _535
REMARK  221  A    between atoms: _534  and  _537
REMARK  222  A    between atoms: _537  and  _538
REMARK  223  A    between atoms: _541  and  _543
REMARK  224  A    between atoms: _543  and  _544
REMARK  225  A    between atoms: _543  and  _546
REMARK  226  A    between atoms: _546  and  _547
REMARK  227  A    between atoms: _550  and  _552
REMARK  228  A    between atoms: _552  and  _553
REMARK  229  A    between atoms: _555  and  _557
REMARK  230  A    between atoms: _557  and  _558
REMARK  231  A    between atoms: _557  and  _560
REMARK  232  A    between atoms: _560  and  _561
REMARK  233  A    between atoms: _561  and  _562
REMARK  234  A    between atoms: _562  and  _563
REMARK  235  A    between atoms: _572  and  _574
REMARK  236  A    between atoms: _574  and  _575
REMARK  237  A    between atoms: _574  and  _577
REMARK  238  A    between atoms: _577  and  _578
REMARK                            x       y       z     vdW  Elec       q    Type
REMARK                         _______ _______ _______ _____ _____    ______ ____
ROOT
ATOM      1  CA  VAL A   1     -15.903 -33.390 -23.948  0.00  0.00    +0.133 C 
ENDROOT
BRANCH   1   2
ATOM      2  CB  VAL A   1     -15.360 -31.965 -24.007  0.00  0.00    +0.023 C 
ATOM      3  CG2 VAL A   1     -16.262 -31.010 -23.256  0.00  0.00    +0.002 C 
ATOM      4  CG1 VAL A   1     -13.916 -31.916 -23.542  0.00  0.00    +0.002 C 
ENDBRANCH   1   2
BRANCH   1   5
ATOM      5  N   VAL A   1     -15.897 -33.924 -22.610  0.00  0.00    -0.239 NA
ATOM      6  H   VAL A   1     -15.005 -34.303 -22.233  0.00  0.00    +0.142 HD
ENDBRANCH   1   5
BRANCH   1   7
ATOM      7  C   VAL A   1     -15.074 -34.308 -24.844  0.00  0.00    +0.224 C 
ATOM      8  O   VAL A   1     -14.349 -35.199 -24.407  0.00  0.00    -0.287 OA
ENDBRANCH   1   7
TORSDOF 3
REMARK  Name = ../refined-set-2016/3nu6/3nu6_pocket.pdb
REMARK  238 active torsions:
REMARK  status: ('A' for Active; 'I' for Inactive)
REMARK    1  A    between atoms: _1  and  _3
REMARK    2  A    between atoms: _3  and  _4
REMARK    3  A    between atoms: _3  and  _6
REMARK    4  A    between atoms: _6  and  _7
REMARK    5  A    between atoms: _7  and  _8
REMARK    6  A    between atoms: _8  and  _9
REMARK    7  A    between atoms: _18  and  _20
REMARK    8  A    between atoms: _20  and  _21
REMARK    9  A    between atoms: _20  and  _23
REMARK   10  A    between atoms: _23  and  _24
REMARK   11  A    between atoms: _27  and  _29
REMARK   12  A    between atoms: _29  and  _30
REMARK   13  A    between atoms: _29  and  _32
REMARK   14  A    between atoms: _32  and  _33
REMARK   15  A    between atoms: _36  and  _38
REMARK   16  A    between atoms: _38  and  _39
REMARK   17  A    between atoms: _38  and  _41
REMARK   18  A    between atoms: _41  and  _42
REMARK   19  A    between atoms: _45  and  _47
REMARK   20  A    between atoms: _47  and  _48
REMARK   21  A    between atoms: _47  and  _50
REMARK   22  A    between atoms: _50  and  _51
REMARK   23  A    between atoms: _54  and  _56
REMARK   24  A    between atoms: _56  and  _57
REMARK   25  A    between atoms: _59  and  _61
REMARK   26  A    between atoms: _61  and  _62
REMARK   27  A    between atoms: _65  and  _67
REMARK   28  A    between atoms: _67  and  _68
REMARK   29  A    between atoms: _67  and  _70
REMARK   30  A    between atoms: _70  and  _71
REMARK   31  A    between atoms: _74  and  _76
REMARK   32  A    between atoms: _76  and  _77
REMARK   33  A    between atoms: _76  and  _79
REMARK   34  A    between atoms: _79  and  _80
REMARK   35  A    between atoms: _83  and  _85
REMARK   36  A    between atoms: _85  and  _86
REMARK   37  A    between atoms: _85  and  _88
REMARK   38  A    between atoms: _88  and  _89
REMARK   39  A    between atoms: _92  and  _94
REMARK   40  A    between atoms: _94  and  _95
REMARK   41  A    between atoms: _94  and  _97
REMARK   42  A    between atoms: _100  and  _102
REMARK   43  A    between atoms: _102  and  _103
REMARK   44  A    between atoms: _102  and  _105
REMARK   45  A    between atoms: _106  and  _107
REMARK   46  A    between atoms: _107  and  _108
REMARK   47  A    between atoms: _108  and  _109
REMARK   48  A    between atoms: _113  and  _115
REMARK   49  A    between atoms: _115  and  _116
REMARK   50  A    between atoms: _115  and  _118
REMARK   51  A    between atoms: _118  and  _119
REMARK   52  A    between atoms: _119  and  _120
REMARK   53  A    between atoms: _122  and  _124
REMARK   54  A    between atoms: _124  and  _125
REMARK   55  A    between atoms: _124  and  _127
REMARK   56  A    between atoms: _127  and  _128
REMARK   57  A    between atoms: _131  and  _133
REMARK   58  A    between atoms: _133  and  _134
REMARK   59  A    between atoms: _136  and  _138
REMARK   60  A    between atoms: _138  and  _139
REMARK   61  A    between atoms: _141  and  _143
REMARK   62  A    between atoms: _143  and  _144
REMARK   63  A    between atoms: _143  and  _146
REMARK   64  A    between atoms: _146  and  _147
REMARK   65  A    between atoms: _150  and  _152
REMARK   66  A    between atoms: _152  and  _153
REMARK   67  A    between atoms: _155  and  _157
REMARK   68  A    between atoms: _157  and  _158
REMARK   69  A    between atoms: _160  and  _162
REMARK   70  A    between atoms: _162  and  _163
REMARK   71  A    between atoms: _162  and  _165
REMARK   72  A    between atoms: _165  and  _166
REMARK   73  A    between atoms: _172  and  _174
REMARK   74  A    between atoms: _174  and  _175
REMARK   75  A    between atoms: _174  and  _177
REMARK   76  A    between atoms: _177  and  _178
REMARK   77  A    between atoms: _178  and  _179
REMARK   78  A    between atoms: _181  and  _183
REMARK   79  A    between atoms: _183  and  _184
REMARK   80  A    between atoms: _183  and  _186
REMARK   81  A    between atoms: _189  and  _191
REMARK   82  A    between atoms: _191  and  _192
REMARK   83  A    between atoms: _191  and  _194
REMARK   84  A    between atoms: _194  and  _195
REMARK   85  A    between atoms: _199  and  _200
REMARK   86  A    between atoms: _205  and  _207
REMARK   87  A    between atoms: _207  and  _208
REMARK   88  A    between atoms: _207  and  _210
REMARK   89  A    between atoms: _210  and  _211
REMARK   90  A    between atoms: _215  and  _216
REMARK   91  A    between atoms: _221  and  _223
REMARK   92  A    between atoms: _223  and  _224
REMARK   93  A    between atoms: _223  and  _226
REMARK   94  A    between atoms: _229  and  _231
REMARK   95  A    between atoms: _231  and  _232
REMARK   96  A    between atoms: _231  and  _234
REMARK   97  A    between atoms: _234  and  _235
REMARK   98  A    between atoms: _240  and  _242
REMARK   99  A    between atoms: _242  and  _243
REMARK  100  A    between atoms: _242  and  _245
REMARK  101  A    between atoms: _245  and  _246
REMARK  102  A    between atoms: _249  and  _251
REMARK  103  A    between atoms: _251  and  _252
REMARK  104  A    between atoms: _251  and  _254
REMARK  105  A    between atoms: _254  and  _255
REMARK  106  A    between atoms: _258  and  _260
REMARK  107  A    between atoms: _260  and  _261
REMARK  108  A    between atoms: _263  and  _265
REMARK  109  A    between atoms: _265  and  _266
REMARK  110  A    between atoms: _265  and  _268
REMARK  111  A    between atoms: _268  and  _269
REMARK  112  A    between atoms: _269  and  _270
REMARK  113  A    between atoms: _270  and  _271
REMARK  114  A    between atoms: _280  and  _282
REMARK  115  A    between atoms: _282  and  _283
REMARK  116  A    between atoms: _282  and  _285
REMARK  117  A    between atoms: _285  and  _286
REMARK  118  A    between atoms: _291  and  _293
REMARK  119  A    between atoms: _293  and  _294
REMARK  120  A    between atoms: _293  and  _296
REMARK  121  A    between atoms: _296  and  _297
REMARK  122  A    between atoms: _297  and  _298
REMARK  123  A    between atoms: _298  and  _299
REMARK  124  A    between atoms: _308  and  _310
REMARK  125  A    between atoms: _310  and  _311
REMARK  126  A    between atoms: _310  and  _313
REMARK  127  A    between atoms: _313  and  _314
REMARK  128  A    between atoms: _317  and  _319
REMARK  129  A    between atoms: _319  and  _320
REMARK  130  A    between atoms: _319  and  _322
REMARK  131  A    between atoms: _322  and  _323
REMARK  132  A    between atoms: _326  and  _328
REMARK  133  A    between atoms: _328  and  _329
REMARK  134  A    between atoms: _328  and  _331
REMARK  135  A    between atoms: _331  and  _332
REMARK  136  A    between atoms: _335  and  _337
REMARK  137  A    between atoms: _337  and  _338
REMARK  138  A    between atoms: _337  and  _340
REMARK  139  A    between atoms: _340  and  _341
REMARK  140  A    between atoms: _344  and  _346
REMARK  141  A    between atoms: _346  and  _347
REMARK  142  A    between atoms: _349  and  _351
REMARK  143  A    between atoms: _351  and  _352
REMARK  144  A    between atoms: _355  and  _357
REMARK  145  A    between atoms: _357  and  _358
REMARK  146  A    between atoms: _357  and  _360
REMARK  147  A    between atoms: _360  and  _361
REMARK  148  A    between atoms: _364  and  _366
REMARK  149  A    between atoms: _366  and  _367
REMARK  150  A    between atoms: _366  and  _369
REMARK  151  A    between atoms: _369  and  _370
REMARK  152  A    between atoms: _373  and  _375
REMARK  153  A    between atoms: _375  and  _376
REMARK  154  A    between atoms: _375  and  _378
REMARK  155  A    between atoms: _378  and  _379
REMARK  156  A    between atoms: _382  and  _384
REMARK  157  A    between atoms: _384  and  _385
REMARK  158  A    between atoms: _384  and  _387
REMARK  159  A    between atoms: _390  and  _392
REMARK  160  A    between atoms: _392  and  _393
REMARK  161  A    between atoms: _392  and  _395
REMARK  162  A    between atoms: _395  and  _396
REMARK  163  A    between atoms: _399  and  _401
REMARK  164  A    between atoms: _401  and  _402
REMARK  165  A    between atoms: _401  and  _404
REMARK  166  A    between atoms: _404  and  _405
REMARK  167  A    between atoms: _405  and  _406
REMARK  168  A    between atoms: _406  and  _407
REMARK  169  A    between atoms: _407  and  _408
REMARK  170  A    between atoms: _412  and  _414
REMARK  171  A    between atoms: _414  and  _415
REMARK  172  A    between atoms: _414  and  _417
REMARK  173  A    between atoms: _417  and  _418
REMARK  174  A    between atoms: _418  and  _419
REMARK  175  A    between atoms: _421  and  _423
REMARK  176  A    between atoms: _423  and  _424
REMARK  177  A    between atoms: _423  and  _426
REMARK  178  A    between atoms: _426  and  _427
REMARK  179  A    between atoms: _430  and  _432
REMARK  180  A    between atoms: _432  and  _433
REMARK  181  A    between atoms: _435  and  _437
REMARK  182  A    between atoms: _437  and  _438
REMARK  183  A    between atoms: _440  and  _442
REMARK  184  A    between atoms: _442  and  _443
REMARK  185  A    between atoms: _442  and  _445
REMARK  186  A    between atoms: _445  and  _446
REMARK  187  A    between atoms: _449  and  _451
REMARK  188  A    between atoms: _451  and  _452
REMARK  189  A    between atoms: _454  and  _456
REMARK  190  A    between atoms: _456  and  _457
REMARK  191  A    between atoms: _459  and  _461
REMARK  192  A    between atoms: _461  and  _462
REMARK  193  A    between atoms: _461  and  _464
REMARK  194  A    between atoms: _464  and  _465
REMARK  195  A    between atoms: _471  and  _473
REMARK  196  A    between atoms: _473  and  _474
REMARK  197  A    between atoms: _473  and  _476
REMARK  198  A    between atoms: _476  and  _477
REMARK  199  A    between atoms: _477  and  _478
REMARK  200  A    between atoms: _480  and  _482
REMARK  201  A    between atoms: _482  and  _483
REMARK  202  A    between atoms: _482  and  _485
REMARK  203  A    between atoms: _488  and  _490
REMARK  204  A    between atoms: _490  and  _491
REMARK  205  A    between atoms: _490  and  _493
REMARK  206  A    between atoms: _493  and  _494
REMARK  207  A    between atoms: _497  and  _499
REMARK  208  A    between atoms: _499  and  _500
REMARK  209  A    between atoms: _499  and  _502
REMARK  210  A    between atoms: _502  and  _503
REMARK  211  A    between atoms: _507  and  _508
REMARK  212  A    between atoms: _513  and  _515
REMARK  213  A    between atoms: _515  and  _516
REMARK  214  A    between atoms: _515  and  _518
REMARK  215  A    between atoms: _521  and  _523
REMARK  216  A    between atoms: _523  and  _524
REMARK  217  A    between atoms: _523  and  _526
REMARK  218  A    between atoms: _526  and  _527
REMARK  219  A    between atoms: _532  and  _534
REMARK  220  A    between atoms: _534  and  _535
REMARK  221  A    between atoms: _534  and  _537
REMARK  222  A    between atoms: _537  and  _538
REMARK  223  A    between atoms: _541  and  _543
REMARK  224  A    between atoms: _543  and  _544
REMARK  225  A    between atoms: _543  and  _546
REMARK  226  A    between atoms: _546  and  _547
REMARK  227  A    between atoms: _550  and  _552
REMARK  228  A    between atoms: _552  and  _553
REMARK  229  A    between atoms: _555  and  _557
REMARK  230  A    between atoms: _557  and  _558
REMARK  231  A    between atoms: _557  and  _560
REMARK  232  A    between atoms: _560  and  _561
REMARK  233  A    between atoms: _561  and  _562
REMARK  234  A    between atoms: _562  and  _563
REMARK  235  A    between atoms: _572  and  _574
REMARK  236  A    between atoms: _574  and  _575
REMARK  237  A    between atoms: _574  and  _577
REMARK  238  A    between atoms: _577  and  _578
REMARK                            x       y       z     vdW  Elec       q    Type
REMARK                         _______ _______ _______ _____ _____    ______ ____
ROOT
ATOM      1  CA  LEU A   1     -13.054 -29.499 -27.558  0.00  0.00    +0.133 C 
ENDROOT
BRANCH   1   2
ATOM      2  N   LEU A   1     -12.196 -28.618 -28.317  0.00  0.00    -0.239 NA
ATOM      3  H   LEU A   1     -12.086 -27.639 -27.984  0.00  0.00    +0.142 HD
ENDBRANCH   1   2
BRANCH   1   4
ATOM      4  C   LEU A   1     -14.498 -29.352 -28.007  0.00  0.00    +0.224 C 
ATOM      5  O   LEU A   1     -14.913 -28.205 -28.248  0.00  0.00    -0.287 OA
ENDBRANCH   1   4
BRANCH   1   6
ATOM      6  CB  LEU A   1     -12.909 -29.206 -26.080  0.00  0.00    +0.025 C 
BRANCH   6   7
ATOM      7  CG  LEU A   1     -11.507 -29.103 -25.540  0.00  0.00    +0.002 C 
ATOM      8  CD2 LEU A   1     -11.548 -28.782 -24.040  0.00  0.00    +0.000 C 
ATOM      9  CD1 LEU A   1     -10.656 -30.336 -25.827  0.00  0.00    +0.000 C 
ENDBRANCH   6   7
ENDBRANCH   1   6
TORSDOF 4
REMARK  Name = ../refined-set-2016/3nu6/3nu6_pocket.pdb
REMARK  238 active torsions:
REMARK  status: ('A' for Active; 'I' for Inactive)
REMARK    1  A    between atoms: _1  and  _3
REMARK    2  A    between atoms: _3  and  _4
REMARK    3  A    between atoms: _3  and  _6
REMARK    4  A    between atoms: _6  and  _7
REMARK    5  A    between atoms: _7  and  _8
REMARK    6  A    between atoms: _8  and  _9
REMARK    7  A    between atoms: _18  and  _20
REMARK    8  A    between atoms: _20  and  _21
REMARK    9  A    between atoms: _20  and  _23
REMARK   10  A    between atoms: _23  and  _24
REMARK   11  A    between atoms: _27  and  _29
REMARK   12  A    between atoms: _29  and  _30
REMARK   13  A    between atoms: _29  and  _32
REMARK   14  A    between atoms: _32  and  _33
REMARK   15  A    between atoms: _36  and  _38
REMARK   16  A    between atoms: _38  and  _39
REMARK   17  A    between atoms: _38  and  _41
REMARK   18  A    between atoms: _41  and  _42
REMARK   19  A    between atoms: _45  and  _47
REMARK   20  A    between atoms: _47  and  _48
REMARK   21  A    between atoms: _47  and  _50
REMARK   22  A    between atoms: _50  and  _51
REMARK   23  A    between atoms: _54  and  _56
REMARK   24  A    between atoms: _56  and  _57
REMARK   25  A    between atoms: _59  and  _61
REMARK   26  A    between atoms: _61  and  _62
REMARK   27  A    between atoms: _65  and  _67
REMARK   28  A    between atoms: _67  and  _68
REMARK   29  A    between atoms: _67  and  _70
REMARK   30  A    between atoms: _70  and  _71
REMARK   31  A    between atoms: _74  and  _76
REMARK   32  A    between atoms: _76  and  _77
REMARK   33  A    between atoms: _76  and  _79
REMARK   34  A    between atoms: _79  and  _80
REMARK   35  A    between atoms: _83  and  _85
REMARK   36  A    between atoms: _85  and  _86
REMARK   37  A    between atoms: _85  and  _88
REMARK   38  A    between atoms: _88  and  _89
REMARK   39  A    between atoms: _92  and  _94
REMARK   40  A    between atoms: _94  and  _95
REMARK   41  A    between atoms: _94  and  _97
REMARK   42  A    between atoms: _100  and  _102
REMARK   43  A    between atoms: _102  and  _103
REMARK   44  A    between atoms: _102  and  _105
REMARK   45  A    between atoms: _106  and  _107
REMARK   46  A    between atoms: _107  and  _108
REMARK   47  A    between atoms: _108  and  _109
REMARK   48  A    between atoms: _113  and  _115
REMARK   49  A    between atoms: _115  and  _116
REMARK   50  A    between atoms: _115  and  _118
REMARK   51  A    between atoms: _118  and  _119
REMARK   52  A    between atoms: _119  and  _120
REMARK   53  A    between atoms: _122  and  _124
REMARK   54  A    between atoms: _124  and  _125
REMARK   55  A    between atoms: _124  and  _127
REMARK   56  A    between atoms: _127  and  _128
REMARK   57  A    between atoms: _131  and  _133
REMARK   58  A    between atoms: _133  and  _134
REMARK   59  A    between atoms: _136  and  _138
REMARK   60  A    between atoms: _138  and  _139
REMARK   61  A    between atoms: _141  and  _143
REMARK   62  A    between atoms: _143  and  _144
REMARK   63  A    between atoms: _143  and  _146
REMARK   64  A    between atoms: _146  and  _147
REMARK   65  A    between atoms: _150  and  _152
REMARK   66  A    between atoms: _152  and  _153
REMARK   67  A    between atoms: _155  and  _157
REMARK   68  A    between atoms: _157  and  _158
REMARK   69  A    between atoms: _160  and  _162
REMARK   70  A    between atoms: _162  and  _163
REMARK   71  A    between atoms: _162  and  _165
REMARK   72  A    between atoms: _165  and  _166
REMARK   73  A    between atoms: _172  and  _174
REMARK   74  A    between atoms: _174  and  _175
REMARK   75  A    between atoms: _174  and  _177
REMARK   76  A    between atoms: _177  and  _178
REMARK   77  A    between atoms: _178  and  _179
REMARK   78  A    between atoms: _181  and  _183
REMARK   79  A    between atoms: _183  and  _184
REMARK   80  A    between atoms: _183  and  _186
REMARK   81  A    between atoms: _189  and  _191
REMARK   82  A    between atoms: _191  and  _192
REMARK   83  A    between atoms: _191  and  _194
REMARK   84  A    between atoms: _194  and  _195
REMARK   85  A    between atoms: _199  and  _200
REMARK   86  A    between atoms: _205  and  _207
REMARK   87  A    between atoms: _207  and  _208
REMARK   88  A    between atoms: _207  and  _210
REMARK   89  A    between atoms: _210  and  _211
REMARK   90  A    between atoms: _215  and  _216
REMARK   91  A    between atoms: _221  and  _223
REMARK   92  A    between atoms: _223  and  _224
REMARK   93  A    between atoms: _223  and  _226
REMARK   94  A    between atoms: _229  and  _231
REMARK   95  A    between atoms: _231  and  _232
REMARK   96  A    between atoms: _231  and  _234
REMARK   97  A    between atoms: _234  and  _235
REMARK   98  A    between atoms: _240  and  _242
REMARK   99  A    between atoms: _242  and  _243
REMARK  100  A    between atoms: _242  and  _245
REMARK  101  A    between atoms: _245  and  _246
REMARK  102  A    between atoms: _249  and  _251
REMARK  103  A    between atoms: _251  and  _252
REMARK  104  A    between atoms: _251  and  _254
REMARK  105  A    between atoms: _254  and  _255
REMARK  106  A    between atoms: _258  and  _260
REMARK  107  A    between atoms: _260  and  _261
REMARK  108  A    between atoms: _263  and  _265
REMARK  109  A    between atoms: _265  and  _266
REMARK  110  A    between atoms: _265  and  _268
REMARK  111  A    between atoms: _268  and  _269
REMARK  112  A    between atoms: _269  and  _270
REMARK  113  A    between atoms: _270  and  _271
REMARK  114  A    between atoms: _280  and  _282
REMARK  115  A    between atoms: _282  and  _283
REMARK  116  A    between atoms: _282  and  _285
REMARK  117  A    between atoms: _285  and  _286
REMARK  118  A    between atoms: _291  and  _293
REMARK  119  A    between atoms: _293  and  _294
REMARK  120  A    between atoms: _293  and  _296
REMARK  121  A    between atoms: _296  and  _297
REMARK  122  A    between atoms: _297  and  _298
REMARK  123  A    between atoms: _298  and  _299
REMARK  124  A    between atoms: _308  and  _310
REMARK  125  A    between atoms: _310  and  _311
REMARK  126  A    between atoms: _310  and  _313
REMARK  127  A    between atoms: _313  and  _314
REMARK  128  A    between atoms: _317  and  _319
REMARK  129  A    between atoms: _319  and  _320
REMARK  130  A    between atoms: _319  and  _322
REMARK  131  A    between atoms: _322  and  _323
REMARK  132  A    between atoms: _326  and  _328
REMARK  133  A    between atoms: _328  and  _329
REMARK  134  A    between atoms: _328  and  _331
REMARK  135  A    between atoms: _331  and  _332
REMARK  136  A    between atoms: _335  and  _337
REMARK  137  A    between atoms: _337  and  _338
REMARK  138  A    between atoms: _337  and  _340
REMARK  139  A    between atoms: _340  and  _341
REMARK  140  A    between atoms: _344  and  _346
REMARK  141  A    between atoms: _346  and  _347
REMARK  142  A    between atoms: _349  and  _351
REMARK  143  A    between atoms: _351  and  _352
REMARK  144  A    between atoms: _355  and  _357
REMARK  145  A    between atoms: _357  and  _358
REMARK  146  A    between atoms: _357  and  _360
REMARK  147  A    between atoms: _360  and  _361
REMARK  148  A    between atoms: _364  and  _366
REMARK  149  A    between atoms: _366  and  _367
REMARK  150  A    between atoms: _366  and  _369
REMARK  151  A    between atoms: _369  and  _370
REMARK  152  A    between atoms: _373  and  _375
REMARK  153  A    between atoms: _375  and  _376
REMARK  154  A    between atoms: _375  and  _378
REMARK  155  A    between atoms: _378  and  _379
REMARK  156  A    between atoms: _382  and  _384
REMARK  157  A    between atoms: _384  and  _385
REMARK  158  A    between atoms: _384  and  _387
REMARK  159  A    between atoms: _390  and  _392
REMARK  160  A    between atoms: _392  and  _393
REMARK  161  A    between atoms: _392  and  _395
REMARK  162  A    between atoms: _395  and  _396
REMARK  163  A    between atoms: _399  and  _401
REMARK  164  A    between atoms: _401  and  _402
REMARK  165  A    between atoms: _401  and  _404
REMARK  166  A    between atoms: _404  and  _405
REMARK  167  A    between atoms: _405  and  _406
REMARK  168  A    between atoms: _406  and  _407
REMARK  169  A    between atoms: _407  and  _408
REMARK  170  A    between atoms: _412  and  _414
REMARK  171  A    between atoms: _414  and  _415
REMARK  172  A    between atoms: _414  and  _417
REMARK  173  A    between atoms: _417  and  _418
REMARK  174  A    between atoms: _418  and  _419
REMARK  175  A    between atoms: _421  and  _423
REMARK  176  A    between atoms: _423  and  _424
REMARK  177  A    between atoms: _423  and  _426
REMARK  178  A    between atoms: _426  and  _427
REMARK  179  A    between atoms: _430  and  _432
REMARK  180  A    between atoms: _432  and  _433
REMARK  181  A    between atoms: _435  and  _437
REMARK  182  A    between atoms: _437  and  _438
REMARK  183  A    between atoms: _440  and  _442
REMARK  184  A    between atoms: _442  and  _443
REMARK  185  A    between atoms: _442  and  _445
REMARK  186  A    between atoms: _445  and  _446
REMARK  187  A    between atoms: _449  and  _451
REMARK  188  A    between atoms: _451  and  _452
REMARK  189  A    between atoms: _454  and  _456
REMARK  190  A    between atoms: _456  and  _457
REMARK  191  A    between atoms: _459  and  _461
REMARK  192  A    between atoms: _461  and  _462
REMARK  193  A    between atoms: _461  and  _464
REMARK  194  A    between atoms: _464  and  _465
REMARK  195  A    between atoms: _471  and  _473
REMARK  196  A    between atoms: _473  and  _474
REMARK  197  A    between atoms: _473  and  _476
REMARK  198  A    between atoms: _476  and  _477
REMARK  199  A    between atoms: _477  and  _478
REMARK  200  A    between atoms: _480  and  _482
REMARK  201  A    between atoms: _482  and  _483
REMARK  202  A    between atoms: _482  and  _485
REMARK  203  A    between atoms: _488  and  _490
REMARK  204  A    between atoms: _490  and  _491
REMARK  205  A    between atoms: _490  and  _493
REMARK  206  A    between atoms: _493  and  _494
REMARK  207  A    between atoms: _497  and  _499
REMARK  208  A    between atoms: _499  and  _500
REMARK  209  A    between atoms: _499  and  _502
REMARK  210  A    between atoms: _502  and  _503
REMARK  211  A    between atoms: _507  and  _508
REMARK  212  A    between atoms: _513  and  _515
REMARK  213  A    between atoms: _515  and  _516
REMARK  214  A    between atoms: _515  and  _518
REMARK  215  A    between atoms: _521  and  _523
REMARK  216  A    between atoms: _523  and  _524
REMARK  217  A    between atoms: _523  and  _526
REMARK  218  A    between atoms: _526  and  _527
REMARK  219  A    between atoms: _532  and  _534
REMARK  220  A    between atoms: _534  and  _535
REMARK  221  A    between atoms: _534  and  _537
REMARK  222  A    between atoms: _537  and  _538
REMARK  223  A    between atoms: _541  and  _543
REMARK  224  A    between atoms: _543  and  _544
REMARK  225  A    between atoms: _543  and  _546
REMARK  226  A    between atoms: _546  and  _547
REMARK  227  A    between atoms: _550  and  _552
REMARK  228  A    between atoms: _552  and  _553
REMARK  229  A    between atoms: _555  and  _557
REMARK  230  A    between atoms: _557  and  _558
REMARK  231  A    between atoms: _557  and  _560
REMARK  232  A    between atoms: _560  and  _561
REMARK  233  A    between atoms: _561  and  _562
REMARK  234  A    between atoms: _562  and  _563
REMARK  235  A    between atoms: _572  and  _574
REMARK  236  A    between atoms: _574  and  _575
REMARK  237  A    between atoms: _574  and  _577
REMARK  238  A    between atoms: _577  and  _578
REMARK                            x       y       z     vdW  Elec       q    Type
REMARK                         _______ _______ _______ _____ _____    ______ ____
ROOT
ATOM      1  C   ILE A   5     -14.375 -20.532 -26.889  0.00  0.00    +0.241 C 
ATOM      2  O   ILE A   5     -13.947 -21.671 -27.111  0.00  0.00    -0.273 OA
ATOM      3  N   ILE A   6     -13.656 -19.451 -27.158  0.00  0.00    -0.297 N 
ATOM      4  H   ILE A   6     -14.128 -18.533 -27.031  0.00  0.00    +0.150 HD
ENDROOT
BRANCH   3   5
ATOM      5  CA  ILE A   6     -12.281 -19.418 -27.610  0.00  0.00    +0.149 C 
BRANCH   5   6
ATOM      6  C   ILE A   6     -11.426 -19.124 -26.388  0.00  0.00    +0.241 C 
ATOM      7  O   ILE A   6     -11.458 -18.040 -25.823  0.00  0.00    -0.273 OA
ATOM      8  N   GLY A   7     -10.698 -20.095 -25.924  0.00  0.00    -0.295 N 
ATOM      9  H   GLY A   7     -10.776 -21.005 -26.421  0.00  0.00    +0.150 HD
BRANCH   8  10
ATOM     10  CA  GLY A   7      -9.815 -20.058 -24.826  0.00  0.00    +0.176 C 
BRANCH  10  11
ATOM     11  C   GLY A   7      -8.378 -19.788 -25.131  0.00  0.00    +0.243 C 
ATOM     12  N   ARG A   8      -7.558 -19.824 -24.073  0.00  0.00    -0.297 N 
ATOM     13  H   ARG A   8      -7.896 -20.208 -23.168  0.00  0.00    +0.150 HD
ATOM     14  O   GLY A   7      -7.979 -19.528 -26.268  0.00  0.00    -0.273 OA
BRANCH  12  15
ATOM     15  CA  ARG A   8      -6.189 -19.325 -24.186  0.00  0.00    +0.149 C 
BRANCH  15  16
ATOM     16  C   ARG A   8      -5.328 -20.081 -25.191  0.00  0.00    +0.241 C 
ATOM     17  N   ASN A   9      -5.579 -21.363 -25.374  0.00  0.00    -0.298 N 
ATOM     18  H   ASN A   9      -6.338 -21.818 -24.828  0.00  0.00    +0.150 HD
ATOM     19  O   ARG A   8      -4.436 -19.506 -25.776  0.00  0.00    -0.273 OA
BRANCH  17  20
ATOM     20  CA  ASN A   9      -4.815 -22.147 -26.322  0.00  0.00    +0.146 C 
BRANCH  20  21
ATOM     21  C   ASN A   9      -4.852 -21.538 -27.706  0.00  0.00    +0.227 C 
ATOM     22  O   ASN A   9      -3.838 -21.572 -28.396  0.00  0.00    -0.286 OA
ENDBRANCH  20  21
BRANCH  20  23
ATOM     23  CB  ASN A   9      -5.227 -23.601 -26.403  0.00  0.00    +0.112 C 
BRANCH  23  24
ATOM     24  CG  ASN A   9      -6.532 -23.921 -27.073  0.00  0.00    +0.222 C 
ATOM     25  ND2 ASN A   9      -7.565 -23.278 -26.685  0.00  0.00    -0.329 N 
ATOM     26 HD21 ASN A   9      -7.482 -22.567 -25.931  0.00  0.00    +0.145 HD
ATOM     27 HD22 ASN A   9      -8.489 -23.465 -27.123  0.00  0.00    +0.145 HD
ATOM     28  OD1 ASN A   9      -6.571 -24.810 -27.999  0.00  0.00    -0.275 OA
ENDBRANCH  23  24
ENDBRANCH  20  23
ENDBRANCH  17  20
ENDBRANCH  15  16
BRANCH  15  29
ATOM     29  CB  ARG A   8      -5.511 -19.314 -22.832  0.00  0.00    +0.033 C 
BRANCH  29  30
ATOM     30  CG  ARG A   8      -6.128 -18.315 -21.843  0.00  0.00    +0.045 C 
BRANCH  30  31
ATOM     31  CD  ARG A   8      -5.332 -18.172 -20.542  0.00  0.00    +0.174 C 
BRANCH  31  32
ATOM     32  NE  ARG A   8      -5.258 -19.399 -19.804  0.00  0.00    -0.265 N 
ATOM     33  HE  ARG A   8      -6.062 -19.612 -19.179  0.00  0.00    +0.259 HD
ATOM     34  CZ  ARG A   8      -4.288 -20.284 -19.829  0.00  0.00    +0.342 C 
ATOM     35  NH2 ARG A   8      -4.421 -21.415 -19.106  0.00  0.00    -0.292 N 
ATOM     36 HH21 ARG A   8      -5.280 -21.574 -18.542  0.00  0.00    +0.255 HD
ATOM     37 HH22 ARG A   8      -3.664 -22.128 -19.112  0.00  0.00    +0.255 HD
ATOM     38  NH1 ARG A   8      -3.153 -20.103 -20.512  0.00  0.00    -0.292 N 
ATOM     39 HH11 ARG A   8      -2.415 -20.836 -20.499  0.00  0.00    +0.255 HD
ATOM     40 HH12 ARG A   8      -3.008 -19.229 -21.057  0.00  0.00    +0.255 HD
ENDBRANCH  31  32
ENDBRANCH  30  31
ENDBRANCH  29  30
ENDBRANCH  15  29
ENDBRANCH  12  15
ENDBRANCH  10  11
ENDBRANCH   8  10
ENDBRANCH   5   6
BRANCH   5  41
ATOM     41  CB  ILE A   6     -12.013 -18.398 -28.707  0.00  0.00    +0.027 C 
ATOM     42  CG2 ILE A   6     -10.551 -18.463 -29.130  0.00  0.00    +0.002 C 
BRANCH  41  43
ATOM     43  CG1 ILE A   6     -12.919 -18.524 -29.907  0.00  0.00    +0.002 C 
ATOM     44  CD1 ILE A   6     -13.055 -19.891 -30.486  0.00  0.00    +0.000 C 
ENDBRANCH  41  43
ENDBRANCH   5  41
ENDBRANCH   3   5
BRANCH   1  45
ATOM     45  CA  ILE A   5     -15.760 -20.221 -26.296  0.00  0.00    +0.149 C 
BRANCH  45  47
ATOM     46  C   ASN A   4     -17.810 -20.494 -27.498  0.00  0.00    +0.241 C 
ATOM     47  N   ILE A   5     -16.753 -21.074 -26.950  0.00  0.00    -0.297 N 
ATOM     48  H   ILE A   5     -16.632 -22.106 -26.984  0.00  0.00    +0.150 HD
ATOM     49  O   ASN A   4     -18.014 -19.266 -27.461  0.00  0.00    -0.273 OA
BRANCH  46  50
ATOM     50  CA  ASN A   4     -18.850 -21.371 -28.172  0.00  0.00    +0.158 C 
BRANCH  50  53
ATOM     51  C   VAL A   3     -20.484 -21.302 -26.411  0.00  0.00    +0.241 C 
ATOM     52  O   VAL A   3     -19.733 -21.971 -25.709  0.00  0.00    -0.273 OA
ATOM     53  N   ASN A   4     -20.179 -21.013 -27.660  0.00  0.00    -0.297 N 
ATOM     54  H   ASN A   4     -20.870 -20.538 -28.275  0.00  0.00    +0.150 HD
BRANCH  51  55
ATOM     55  CA  VAL A   3     -21.826 -20.779 -25.908  0.00  0.00    +0.149 C 
BRANCH  55  57
ATOM     56  C   PRO A   2     -23.416 -22.036 -24.480  0.00  0.00    +0.245 C 
ATOM     57  N   VAL A   3     -22.224 -21.756 -24.885  0.00  0.00    -0.297 N 
ATOM     58  H   VAL A   3     -21.451 -22.285 -24.433  0.00  0.00    +0.150 HD
ATOM     59  O   PRO A   2     -24.351 -21.413 -24.976  0.00  0.00    -0.273 OA
BRANCH  56  65
ATOM     60  C   THR A   1     -22.392 -24.970 -24.045  0.00  0.00    +0.244 C 
ATOM     61  N   PRO A   2     -22.638 -24.028 -23.133  0.00  0.00    -0.264 N 
ATOM     62  CD  PRO A   2     -21.943 -23.876 -21.835  0.00  0.00    +0.120 C 
ATOM     63  CG  PRO A   2     -22.762 -22.831 -21.144  0.00  0.00    -0.007 C 
ATOM     64  CB  PRO A   2     -23.769 -22.318 -22.087  0.00  0.00    -0.000 C 
ATOM     65  CA  PRO A   2     -23.698 -23.071 -23.384  0.00  0.00    +0.175 C 
ATOM     66  O   THR A   1     -23.127 -24.959 -25.036  0.00  0.00    -0.273 OA
BRANCH  60  67
ATOM     67  CA  THR A   1     -21.246 -25.903 -23.764  0.00  0.00    +0.172 C 
BRANCH  67  68
ATOM     68  CB  THR A   1     -19.938 -25.334 -24.331  0.00  0.00    +0.135 C 
ATOM     69  CG2 THR A   1     -20.016 -25.202 -25.858  0.00  0.00    +0.034 C 
BRANCH  68  70
ATOM     70  OG1 THR A   1     -19.679 -24.021 -23.805  0.00  0.00    -0.383 OA
ATOM     71  HG1 THR A   1     -20.423 -23.416 -24.051  0.00  0.00    +0.210 HD
ENDBRANCH  68  70
ENDBRANCH  67  68
BRANCH  67  72
ATOM     72  N   THR A   1     -21.514 -27.232 -24.324  0.00  0.00    -0.236 NA
ATOM     73  H   THR A   1     -21.088 -27.508 -25.232  0.00  0.00    +0.142 HD
ENDBRANCH  67  72
ENDBRANCH  60  67
ENDBRANCH  56  65
ENDBRANCH  55  57
BRANCH  55  74
ATOM     74  CB  VAL A   3     -21.668 -19.369 -25.394  0.00  0.00    +0.027 C 
ATOM     75  CG2 VAL A   3     -20.511 -19.262 -24.402  0.00  0.00    +0.002 C 
ATOM     76  CG1 VAL A   3     -21.314 -18.309 -26.413  0.00  0.00    +0.002 C 
ENDBRANCH  55  74
ENDBRANCH  51  55
ENDBRANCH  50  53
BRANCH  50  77
ATOM     77  CB  ASN A   4     -18.784 -21.181 -29.691  0.00  0.00    +0.114 C 
BRANCH  77  78
ATOM     78  CG  ASN A   4     -19.749 -22.083 -30.421  0.00  0.00    +0.222 C 
ATOM     79  OD1 ASN A   4     -19.889 -23.256 -30.057  0.00  0.00    -0.275 OA
ATOM     80  ND2 ASN A   4     -20.375 -21.521 -31.431  0.00  0.00    -0.329 N 
ATOM     81 HD21 ASN A   4     -20.194 -20.524 -31.665  0.00  0.00    +0.145 HD
ATOM     82 HD22 ASN A   4     -21.051 -22.073 -31.996  0.00  0.00    +0.145 HD
ENDBRANCH  77  78
ENDBRANCH  50  77
ENDBRANCH  46  50
ENDBRANCH  45  47
BRANCH  45  83
ATOM     83  CB  ILE A   5     -15.720 -20.369 -24.770  0.00  0.00    +0.027 C 
ATOM     84  CG2 ILE A   5     -16.946 -19.783 -24.085  0.00  0.00    +0.002 C 
BRANCH  83  85
ATOM     85  CG1 ILE A   5     -15.523 -21.810 -24.313  0.00  0.00    +0.002 C 
ATOM     86  CD1 ILE A   5     -15.404 -22.001 -22.821  0.00  0.00    +0.000 C 
ENDBRANCH  83  85
ENDBRANCH  45  83
ENDBRANCH   1  45
TORSDOF 32
REMARK  Name = ../refined-set-2016/3nu6/3nu6_pocket.pdb
REMARK  238 active torsions:
REMARK  status: ('A' for Active; 'I' for Inactive)
REMARK    1  A    between atoms: _1  and  _3
REMARK    2  A    between atoms: _3  and  _4
REMARK    3  A    between atoms: _3  and  _6
REMARK    4  A    between atoms: _6  and  _7
REMARK    5  A    between atoms: _7  and  _8
REMARK    6  A    between atoms: _8  and  _9
REMARK    7  A    between atoms: _18  and  _20
REMARK    8  A    between atoms: _20  and  _21
REMARK    9  A    between atoms: _20  and  _23
REMARK   10  A    between atoms: _23  and  _24
REMARK   11  A    between atoms: _27  and  _29
REMARK   12  A    between atoms: _29  and  _30
REMARK   13  A    between atoms: _29  and  _32
REMARK   14  A    between atoms: _32  and  _33
REMARK   15  A    between atoms: _36  and  _38
REMARK   16  A    between atoms: _38  and  _39
REMARK   17  A    between atoms: _38  and  _41
REMARK   18  A    between atoms: _41  and  _42
REMARK   19  A    between atoms: _45  and  _47
REMARK   20  A    between atoms: _47  and  _48
REMARK   21  A    between atoms: _47  and  _50
REMARK   22  A    between atoms: _50  and  _51
REMARK   23  A    between atoms: _54  and  _56
REMARK   24  A    between atoms: _56  and  _57
REMARK   25  A    between atoms: _59  and  _61
REMARK   26  A    between atoms: _61  and  _62
REMARK   27  A    between atoms: _65  and  _67
REMARK   28  A    between atoms: _67  and  _68
REMARK   29  A    between atoms: _67  and  _70
REMARK   30  A    between atoms: _70  and  _71
REMARK   31  A    between atoms: _74  and  _76
REMARK   32  A    between atoms: _76  and  _77
REMARK   33  A    between atoms: _76  and  _79
REMARK   34  A    between atoms: _79  and  _80
REMARK   35  A    between atoms: _83  and  _85
REMARK   36  A    between atoms: _85  and  _86
REMARK   37  A    between atoms: _85  and  _88
REMARK   38  A    between atoms: _88  and  _89
REMARK   39  A    between atoms: _92  and  _94
REMARK   40  A    between atoms: _94  and  _95
REMARK   41  A    between atoms: _94  and  _97
REMARK   42  A    between atoms: _100  and  _102
REMARK   43  A    between atoms: _102  and  _103
REMARK   44  A    between atoms: _102  and  _105
REMARK   45  A    between atoms: _106  and  _107
REMARK   46  A    between atoms: _107  and  _108
REMARK   47  A    between atoms: _108  and  _109
REMARK   48  A    between atoms: _113  and  _115
REMARK   49  A    between atoms: _115  and  _116
REMARK   50  A    between atoms: _115  and  _118
REMARK   51  A    between atoms: _118  and  _119
REMARK   52  A    between atoms: _119  and  _120
REMARK   53  A    between atoms: _122  and  _124
REMARK   54  A    between atoms: _124  and  _125
REMARK   55  A    between atoms: _124  and  _127
REMARK   56  A    between atoms: _127  and  _128
REMARK   57  A    between atoms: _131  and  _133
REMARK   58  A    between atoms: _133  and  _134
REMARK   59  A    between atoms: _136  and  _138
REMARK   60  A    between atoms: _138  and  _139
REMARK   61  A    between atoms: _141  and  _143
REMARK   62  A    between atoms: _143  and  _144
REMARK   63  A    between atoms: _143  and  _146
REMARK   64  A    between atoms: _146  and  _147
REMARK   65  A    between atoms: _150  and  _152
REMARK   66  A    between atoms: _152  and  _153
REMARK   67  A    between atoms: _155  and  _157
REMARK   68  A    between atoms: _157  and  _158
REMARK   69  A    between atoms: _160  and  _162
REMARK   70  A    between atoms: _162  and  _163
REMARK   71  A    between atoms: _162  and  _165
REMARK   72  A    between atoms: _165  and  _166
REMARK   73  A    between atoms: _172  and  _174
REMARK   74  A    between atoms: _174  and  _175
REMARK   75  A    between atoms: _174  and  _177
REMARK   76  A    between atoms: _177  and  _178
REMARK   77  A    between atoms: _178  and  _179
REMARK   78  A    between atoms: _181  and  _183
REMARK   79  A    between atoms: _183  and  _184
REMARK   80  A    between atoms: _183  and  _186
REMARK   81  A    between atoms: _189  and  _191
REMARK   82  A    between atoms: _191  and  _192
REMARK   83  A    between atoms: _191  and  _194
REMARK   84  A    between atoms: _194  and  _195
REMARK   85  A    between atoms: _199  and  _200
REMARK   86  A    between atoms: _205  and  _207
REMARK   87  A    between atoms: _207  and  _208
REMARK   88  A    between atoms: _207  and  _210
REMARK   89  A    between atoms: _210  and  _211
REMARK   90  A    between atoms: _215  and  _216
REMARK   91  A    between atoms: _221  and  _223
REMARK   92  A    between atoms: _223  and  _224
REMARK   93  A    between atoms: _223  and  _226
REMARK   94  A    between atoms: _229  and  _231
REMARK   95  A    between atoms: _231  and  _232
REMARK   96  A    between atoms: _231  and  _234
REMARK   97  A    between atoms: _234  and  _235
REMARK   98  A    between atoms: _240  and  _242
REMARK   99  A    between atoms: _242  and  _243
REMARK  100  A    between atoms: _242  and  _245
REMARK  101  A    between atoms: _245  and  _246
REMARK  102  A    between atoms: _249  and  _251
REMARK  103  A    between atoms: _251  and  _252
REMARK  104  A    between atoms: _251  and  _254
REMARK  105  A    between atoms: _254  and  _255
REMARK  106  A    between atoms: _258  and  _260
REMARK  107  A    between atoms: _260  and  _261
REMARK  108  A    between atoms: _263  and  _265
REMARK  109  A    between atoms: _265  and  _266
REMARK  110  A    between atoms: _265  and  _268
REMARK  111  A    between atoms: _268  and  _269
REMARK  112  A    between atoms: _269  and  _270
REMARK  113  A    between atoms: _270  and  _271
REMARK  114  A    between atoms: _280  and  _282
REMARK  115  A    between atoms: _282  and  _283
REMARK  116  A    between atoms: _282  and  _285
REMARK  117  A    between atoms: _285  and  _286
REMARK  118  A    between atoms: _291  and  _293
REMARK  119  A    between atoms: _293  and  _294
REMARK  120  A    between atoms: _293  and  _296
REMARK  121  A    between atoms: _296  and  _297
REMARK  122  A    between atoms: _297  and  _298
REMARK  123  A    between atoms: _298  and  _299
REMARK  124  A    between atoms: _308  and  _310
REMARK  125  A    between atoms: _310  and  _311
REMARK  126  A    between atoms: _310  and  _313
REMARK  127  A    between atoms: _313  and  _314
REMARK  128  A    between atoms: _317  and  _319
REMARK  129  A    between atoms: _319  and  _320
REMARK  130  A    between atoms: _319  and  _322
REMARK  131  A    between atoms: _322  and  _323
REMARK  132  A    between atoms: _326  and  _328
REMARK  133  A    between atoms: _328  and  _329
REMARK  134  A    between atoms: _328  and  _331
REMARK  135  A    between atoms: _331  and  _332
REMARK  136  A    between atoms: _335  and  _337
REMARK  137  A    between atoms: _337  and  _338
REMARK  138  A    between atoms: _337  and  _340
REMARK  139  A    between atoms: _340  and  _341
REMARK  140  A    between atoms: _344  and  _346
REMARK  141  A    between atoms: _346  and  _347
REMARK  142  A    between atoms: _349  and  _351
REMARK  143  A    between atoms: _351  and  _352
REMARK  144  A    between atoms: _355  and  _357
REMARK  145  A    between atoms: _357  and  _358
REMARK  146  A    between atoms: _357  and  _360
REMARK  147  A    between atoms: _360  and  _361
REMARK  148  A    between atoms: _364  and  _366
REMARK  149  A    between atoms: _366  and  _367
REMARK  150  A    between atoms: _366  and  _369
REMARK  151  A    between atoms: _369  and  _370
REMARK  152  A    between atoms: _373  and  _375
REMARK  153  A    between atoms: _375  and  _376
REMARK  154  A    between atoms: _375  and  _378
REMARK  155  A    between atoms: _378  and  _379
REMARK  156  A    between atoms: _382  and  _384
REMARK  157  A    between atoms: _384  and  _385
REMARK  158  A    between atoms: _384  and  _387
REMARK  159  A    between atoms: _390  and  _392
REMARK  160  A    between atoms: _392  and  _393
REMARK  161  A    between atoms: _392  and  _395
REMARK  162  A    between atoms: _395  and  _396
REMARK  163  A    between atoms: _399  and  _401
REMARK  164  A    between atoms: _401  and  _402
REMARK  165  A    between atoms: _401  and  _404
REMARK  166  A    between atoms: _404  and  _405
REMARK  167  A    between atoms: _405  and  _406
REMARK  168  A    between atoms: _406  and  _407
REMARK  169  A    between atoms: _407  and  _408
REMARK  170  A    between atoms: _412  and  _414
REMARK  171  A    between atoms: _414  and  _415
REMARK  172  A    between atoms: _414  and  _417
REMARK  173  A    between atoms: _417  and  _418
REMARK  174  A    between atoms: _418  and  _419
REMARK  175  A    between atoms: _421  and  _423
REMARK  176  A    between atoms: _423  and  _424
REMARK  177  A    between atoms: _423  and  _426
REMARK  178  A    between atoms: _426  and  _427
REMARK  179  A    between atoms: _430  and  _432
REMARK  180  A    between atoms: _432  and  _433
REMARK  181  A    between atoms: _435  and  _437
REMARK  182  A    between atoms: _437  and  _438
REMARK  183  A    between atoms: _440  and  _442
REMARK  184  A    between atoms: _442  and  _443
REMARK  185  A    between atoms: _442  and  _445
REMARK  186  A    between atoms: _445  and  _446
REMARK  187  A    between atoms: _449  and  _451
REMARK  188  A    between atoms: _451  and  _452
REMARK  189  A    between atoms: _454  and  _456
REMARK  190  A    between atoms: _456  and  _457
REMARK  191  A    between atoms: _459  and  _461
REMARK  192  A    between atoms: _461  and  _462
REMARK  193  A    between atoms: _461  and  _464
REMARK  194  A    between atoms: _464  and  _465
REMARK  195  A    between atoms: _471  and  _473
REMARK  196  A    between atoms: _473  and  _474
REMARK  197  A    between atoms: _473  and  _476
REMARK  198  A    between atoms: _476  and  _477
REMARK  199  A    between atoms: _477  and  _478
REMARK  200  A    between atoms: _480  and  _482
REMARK  201  A    between atoms: _482  and  _483
REMARK  202  A    between atoms: _482  and  _485
REMARK  203  A    between atoms: _488  and  _490
REMARK  204  A    between atoms: _490  and  _491
REMARK  205  A    between atoms: _490  and  _493
REMARK  206  A    between atoms: _493  and  _494
REMARK  207  A    between atoms: _497  and  _499
REMARK  208  A    between atoms: _499  and  _500
REMARK  209  A    between atoms: _499  and  _502
REMARK  210  A    between atoms: _502  and  _503
REMARK  211  A    between atoms: _507  and  _508
REMARK  212  A    between atoms: _513  and  _515
REMARK  213  A    between atoms: _515  and  _516
REMARK  214  A    between atoms: _515  and  _518
REMARK  215  A    between atoms: _521  and  _523
REMARK  216  A    between atoms: _523  and  _524
REMARK  217  A    between atoms: _523  and  _526
REMARK  218  A    between atoms: _526  and  _527
REMARK  219  A    between atoms: _532  and  _534
REMARK  220  A    between atoms: _534  and  _535
REMARK  221  A    between atoms: _534  and  _537
REMARK  222  A    between atoms: _537  and  _538
REMARK  223  A    between atoms: _541  and  _543
REMARK  224  A    between atoms: _543  and  _544
REMARK  225  A    between atoms: _543  and  _546
REMARK  226  A    between atoms: _546  and  _547
REMARK  227  A    between atoms: _550  and  _552
REMARK  228  A    between atoms: _552  and  _553
REMARK  229  A    between atoms: _555  and  _557
REMARK  230  A    between atoms: _557  and  _558
REMARK  231  A    between atoms: _557  and  _560
REMARK  232  A    between atoms: _560  and  _561
REMARK  233  A    between atoms: _561  and  _562
REMARK  234  A    between atoms: _562  and  _563
REMARK  235  A    between atoms: _572  and  _574
REMARK  236  A    between atoms: _574  and  _575
REMARK  237  A    between atoms: _574  and  _577
REMARK  238  A    between atoms: _577  and  _578
REMARK                            x       y       z     vdW  Elec       q    Type
REMARK                         _______ _______ _______ _____ _____    ______ ____
ROOT
ATOM      1  O   HOH     1     -18.378 -12.162 -21.321  0.00  0.00    +0.000 OA
ENDROOT
TORSDOF 0
REMARK  Name = ../refined-set-2016/3nu6/3nu6_pocket.pdb
REMARK  238 active torsions:
REMARK  status: ('A' for Active; 'I' for Inactive)
REMARK    1  A    between atoms: _1  and  _3
REMARK    2  A    between atoms: _3  and  _4
REMARK    3  A    between atoms: _3  and  _6
REMARK    4  A    between atoms: _6  and  _7
REMARK    5  A    between atoms: _7  and  _8
REMARK    6  A    between atoms: _8  and  _9
REMARK    7  A    between atoms: _18  and  _20
REMARK    8  A    between atoms: _20  and  _21
REMARK    9  A    between atoms: _20  and  _23
REMARK   10  A    between atoms: _23  and  _24
REMARK   11  A    between atoms: _27  and  _29
REMARK   12  A    between atoms: _29  and  _30
REMARK   13  A    between atoms: _29  and  _32
REMARK   14  A    between atoms: _32  and  _33
REMARK   15  A    between atoms: _36  and  _38
REMARK   16  A    between atoms: _38  and  _39
REMARK   17  A    between atoms: _38  and  _41
REMARK   18  A    between atoms: _41  and  _42
REMARK   19  A    between atoms: _45  and  _47
REMARK   20  A    between atoms: _47  and  _48
REMARK   21  A    between atoms: _47  and  _50
REMARK   22  A    between atoms: _50  and  _51
REMARK   23  A    between atoms: _54  and  _56
REMARK   24  A    between atoms: _56  and  _57
REMARK   25  A    between atoms: _59  and  _61
REMARK   26  A    between atoms: _61  and  _62
REMARK   27  A    between atoms: _65  and  _67
REMARK   28  A    between atoms: _67  and  _68
REMARK   29  A    between atoms: _67  and  _70
REMARK   30  A    between atoms: _70  and  _71
REMARK   31  A    between atoms: _74  and  _76
REMARK   32  A    between atoms: _76  and  _77
REMARK   33  A    between atoms: _76  and  _79
REMARK   34  A    between atoms: _79  and  _80
REMARK   35  A    between atoms: _83  and  _85
REMARK   36  A    between atoms: _85  and  _86
REMARK   37  A    between atoms: _85  and  _88
REMARK   38  A    between atoms: _88  and  _89
REMARK   39  A    between atoms: _92  and  _94
REMARK   40  A    between atoms: _94  and  _95
REMARK   41  A    between atoms: _94  and  _97
REMARK   42  A    between atoms: _100  and  _102
REMARK   43  A    between atoms: _102  and  _103
REMARK   44  A    between atoms: _102  and  _105
REMARK   45  A    between atoms: _106  and  _107
REMARK   46  A    between atoms: _107  and  _108
REMARK   47  A    between atoms: _108  and  _109
REMARK   48  A    between atoms: _113  and  _115
REMARK   49  A    between atoms: _115  and  _116
REMARK   50  A    between atoms: _115  and  _118
REMARK   51  A    between atoms: _118  and  _119
REMARK   52  A    between atoms: _119  and  _120
REMARK   53  A    between atoms: _122  and  _124
REMARK   54  A    between atoms: _124  and  _125
REMARK   55  A    between atoms: _124  and  _127
REMARK   56  A    between atoms: _127  and  _128
REMARK   57  A    between atoms: _131  and  _133
REMARK   58  A    between atoms: _133  and  _134
REMARK   59  A    between atoms: _136  and  _138
REMARK   60  A    between atoms: _138  and  _139
REMARK   61  A    between atoms: _141  and  _143
REMARK   62  A    between atoms: _143  and  _144
REMARK   63  A    between atoms: _143  and  _146
REMARK   64  A    between atoms: _146  and  _147
REMARK   65  A    between atoms: _150  and  _152
REMARK   66  A    between atoms: _152  and  _153
REMARK   67  A    between atoms: _155  and  _157
REMARK   68  A    between atoms: _157  and  _158
REMARK   69  A    between atoms: _160  and  _162
REMARK   70  A    between atoms: _162  and  _163
REMARK   71  A    between atoms: _162  and  _165
REMARK   72  A    between atoms: _165  and  _166
REMARK   73  A    between atoms: _172  and  _174
REMARK   74  A    between atoms: _174  and  _175
REMARK   75  A    between atoms: _174  and  _177
REMARK   76  A    between atoms: _177  and  _178
REMARK   77  A    between atoms: _178  and  _179
REMARK   78  A    between atoms: _181  and  _183
REMARK   79  A    between atoms: _183  and  _184
REMARK   80  A    between atoms: _183  and  _186
REMARK   81  A    between atoms: _189  and  _191
REMARK   82  A    between atoms: _191  and  _192
REMARK   83  A    between atoms: _191  and  _194
REMARK   84  A    between atoms: _194  and  _195
REMARK   85  A    between atoms: _199  and  _200
REMARK   86  A    between atoms: _205  and  _207
REMARK   87  A    between atoms: _207  and  _208
REMARK   88  A    between atoms: _207  and  _210
REMARK   89  A    between atoms: _210  and  _211
REMARK   90  A    between atoms: _215  and  _216
REMARK   91  A    between atoms: _221  and  _223
REMARK   92  A    between atoms: _223  and  _224
REMARK   93  A    between atoms: _223  and  _226
REMARK   94  A    between atoms: _229  and  _231
REMARK   95  A    between atoms: _231  and  _232
REMARK   96  A    between atoms: _231  and  _234
REMARK   97  A    between atoms: _234  and  _235
REMARK   98  A    between atoms: _240  and  _242
REMARK   99  A    between atoms: _242  and  _243
REMARK  100  A    between atoms: _242  and  _245
REMARK  101  A    between atoms: _245  and  _246
REMARK  102  A    between atoms: _249  and  _251
REMARK  103  A    between atoms: _251  and  _252
REMARK  104  A    between atoms: _251  and  _254
REMARK  105  A    between atoms: _254  and  _255
REMARK  106  A    between atoms: _258  and  _260
REMARK  107  A    between atoms: _260  and  _261
REMARK  108  A    between atoms: _263  and  _265
REMARK  109  A    between atoms: _265  and  _266
REMARK  110  A    between atoms: _265  and  _268
REMARK  111  A    between atoms: _268  and  _269
REMARK  112  A    between atoms: _269  and  _270
REMARK  113  A    between atoms: _270  and  _271
REMARK  114  A    between atoms: _280  and  _282
REMARK  115  A    between atoms: _282  and  _283
REMARK  116  A    between atoms: _282  and  _285
REMARK  117  A    between atoms: _285  and  _286
REMARK  118  A    between atoms: _291  and  _293
REMARK  119  A    between atoms: _293  and  _294
REMARK  120  A    between atoms: _293  and  _296
REMARK  121  A    between atoms: _296  and  _297
REMARK  122  A    between atoms: _297  and  _298
REMARK  123  A    between atoms: _298  and  _299
REMARK  124  A    between atoms: _308  and  _310
REMARK  125  A    between atoms: _310  and  _311
REMARK  126  A    between atoms: _310  and  _313
REMARK  127  A    between atoms: _313  and  _314
REMARK  128  A    between atoms: _317  and  _319
REMARK  129  A    between atoms: _319  and  _320
REMARK  130  A    between atoms: _319  and  _322
REMARK  131  A    between atoms: _322  and  _323
REMARK  132  A    between atoms: _326  and  _328
REMARK  133  A    between atoms: _328  and  _329
REMARK  134  A    between atoms: _328  and  _331
REMARK  135  A    between atoms: _331  and  _332
REMARK  136  A    between atoms: _335  and  _337
REMARK  137  A    between atoms: _337  and  _338
REMARK  138  A    between atoms: _337  and  _340
REMARK  139  A    between atoms: _340  and  _341
REMARK  140  A    between atoms: _344  and  _346
REMARK  141  A    between atoms: _346  and  _347
REMARK  142  A    between atoms: _349  and  _351
REMARK  143  A    between atoms: _351  and  _352
REMARK  144  A    between atoms: _355  and  _357
REMARK  145  A    between atoms: _357  and  _358
REMARK  146  A    between atoms: _357  and  _360
REMARK  147  A    between atoms: _360  and  _361
REMARK  148  A    between atoms: _364  and  _366
REMARK  149  A    between atoms: _366  and  _367
REMARK  150  A    between atoms: _366  and  _369
REMARK  151  A    between atoms: _369  and  _370
REMARK  152  A    between atoms: _373  and  _375
REMARK  153  A    between atoms: _375  and  _376
REMARK  154  A    between atoms: _375  and  _378
REMARK  155  A    between atoms: _378  and  _379
REMARK  156  A    between atoms: _382  and  _384
REMARK  157  A    between atoms: _384  and  _385
REMARK  158  A    between atoms: _384  and  _387
REMARK  159  A    between atoms: _390  and  _392
REMARK  160  A    between atoms: _392  and  _393
REMARK  161  A    between atoms: _392  and  _395
REMARK  162  A    between atoms: _395  and  _396
REMARK  163  A    between atoms: _399  and  _401
REMARK  164  A    between atoms: _401  and  _402
REMARK  165  A    between atoms: _401  and  _404
REMARK  166  A    between atoms: _404  and  _405
REMARK  167  A    between atoms: _405  and  _406
REMARK  168  A    between atoms: _406  and  _407
REMARK  169  A    between atoms: _407  and  _408
REMARK  170  A    between atoms: _412  and  _414
REMARK  171  A    between atoms: _414  and  _415
REMARK  172  A    between atoms: _414  and  _417
REMARK  173  A    between atoms: _417  and  _418
REMARK  174  A    between atoms: _418  and  _419
REMARK  175  A    between atoms: _421  and  _423
REMARK  176  A    between atoms: _423  and  _424
REMARK  177  A    between atoms: _423  and  _426
REMARK  178  A    between atoms: _426  and  _427
REMARK  179  A    between atoms: _430  and  _432
REMARK  180  A    between atoms: _432  and  _433
REMARK  181  A    between atoms: _435  and  _437
REMARK  182  A    between atoms: _437  and  _438
REMARK  183  A    between atoms: _440  and  _442
REMARK  184  A    between atoms: _442  and  _443
REMARK  185  A    between atoms: _442  and  _445
REMARK  186  A    between atoms: _445  and  _446
REMARK  187  A    between atoms: _449  and  _451
REMARK  188  A    between atoms: _451  and  _452
REMARK  189  A    between atoms: _454  and  _456
REMARK  190  A    between atoms: _456  and  _457
REMARK  191  A    between atoms: _459  and  _461
REMARK  192  A    between atoms: _461  and  _462
REMARK  193  A    between atoms: _461  and  _464
REMARK  194  A    between atoms: _464  and  _465
REMARK  195  A    between atoms: _471  and  _473
REMARK  196  A    between atoms: _473  and  _474
REMARK  197  A    between atoms: _473  and  _476
REMARK  198  A    between atoms: _476  and  _477
REMARK  199  A    between atoms: _477  and  _478
REMARK  200  A    between atoms: _480  and  _482
REMARK  201  A    between atoms: _482  and  _483
REMARK  202  A    between atoms: _482  and  _485
REMARK  203  A    between atoms: _488  and  _490
REMARK  204  A    between atoms: _490  and  _491
REMARK  205  A    between atoms: _490  and  _493
REMARK  206  A    between atoms: _493  and  _494
REMARK  207  A    between atoms: _497  and  _499
REMARK  208  A    between atoms: _499  and  _500
REMARK  209  A    between atoms: _499  and  _502
REMARK  210  A    between atoms: _502  and  _503
REMARK  211  A    between atoms: _507  and  _508
REMARK  212  A    between atoms: _513  and  _515
REMARK  213  A    between atoms: _515  and  _516
REMARK  214  A    between atoms: _515  and  _518
REMARK  215  A    between atoms: _521  and  _523
REMARK  216  A    between atoms: _523  and  _524
REMARK  217  A    between atoms: _523  and  _526
REMARK  218  A    between atoms: _526  and  _527
REMARK  219  A    between atoms: _532  and  _534
REMARK  220  A    between atoms: _534  and  _535
REMARK  221  A    between atoms: _534  and  _537
REMARK  222  A    between atoms: _537  and  _538
REMARK  223  A    between atoms: _541  and  _543
REMARK  224  A    between atoms: _543  and  _544
REMARK  225  A    between atoms: _543  and  _546
REMARK  226  A    between atoms: _546  and  _547
REMARK  227  A    between atoms: _550  and  _552
REMARK  228  A    between atoms: _552  and  _553
REMARK  229  A    between atoms: _555  and  _557
REMARK  230  A    between atoms: _557  and  _558
REMARK  231  A    between atoms: _557  and  _560
REMARK  232  A    between atoms: _560  and  _561
REMARK  233  A    between atoms: _561  and  _562
REMARK  234  A    between atoms: _562  and  _563
REMARK  235  A    between atoms: _572  and  _574
REMARK  236  A    between atoms: _574  and  _575
REMARK  237  A    between atoms: _574  and  _577
REMARK  238  A    between atoms: _577  and  _578
REMARK                            x       y       z     vdW  Elec       q    Type
REMARK                         _______ _______ _______ _____ _____    ______ ____
ROOT
ATOM      1  O   HOH     1     -21.063  -7.191 -17.608  0.00  0.00    +0.000 OA
ENDROOT
TORSDOF 0
REMARK  Name = ../refined-set-2016/3nu6/3nu6_pocket.pdb
REMARK  238 active torsions:
REMARK  status: ('A' for Active; 'I' for Inactive)
REMARK    1  A    between atoms: _1  and  _3
REMARK    2  A    between atoms: _3  and  _4
REMARK    3  A    between atoms: _3  and  _6
REMARK    4  A    between atoms: _6  and  _7
REMARK    5  A    between atoms: _7  and  _8
REMARK    6  A    between atoms: _8  and  _9
REMARK    7  A    between atoms: _18  and  _20
REMARK    8  A    between atoms: _20  and  _21
REMARK    9  A    between atoms: _20  and  _23
REMARK   10  A    between atoms: _23  and  _24
REMARK   11  A    between atoms: _27  and  _29
REMARK   12  A    between atoms: _29  and  _30
REMARK   13  A    between atoms: _29  and  _32
REMARK   14  A    between atoms: _32  and  _33
REMARK   15  A    between atoms: _36  and  _38
REMARK   16  A    between atoms: _38  and  _39
REMARK   17  A    between atoms: _38  and  _41
REMARK   18  A    between atoms: _41  and  _42
REMARK   19  A    between atoms: _45  and  _47
REMARK   20  A    between atoms: _47  and  _48
REMARK   21  A    between atoms: _47  and  _50
REMARK   22  A    between atoms: _50  and  _51
REMARK   23  A    between atoms: _54  and  _56
REMARK   24  A    between atoms: _56  and  _57
REMARK   25  A    between atoms: _59  and  _61
REMARK   26  A    between atoms: _61  and  _62
REMARK   27  A    between atoms: _65  and  _67
REMARK   28  A    between atoms: _67  and  _68
REMARK   29  A    between atoms: _67  and  _70
REMARK   30  A    between atoms: _70  and  _71
REMARK   31  A    between atoms: _74  and  _76
REMARK   32  A    between atoms: _76  and  _77
REMARK   33  A    between atoms: _76  and  _79
REMARK   34  A    between atoms: _79  and  _80
REMARK   35  A    between atoms: _83  and  _85
REMARK   36  A    between atoms: _85  and  _86
REMARK   37  A    between atoms: _85  and  _88
REMARK   38  A    between atoms: _88  and  _89
REMARK   39  A    between atoms: _92  and  _94
REMARK   40  A    between atoms: _94  and  _95
REMARK   41  A    between atoms: _94  and  _97
REMARK   42  A    between atoms: _100  and  _102
REMARK   43  A    between atoms: _102  and  _103
REMARK   44  A    between atoms: _102  and  _105
REMARK   45  A    between atoms: _106  and  _107
REMARK   46  A    between atoms: _107  and  _108
REMARK   47  A    between atoms: _108  and  _109
REMARK   48  A    between atoms: _113  and  _115
REMARK   49  A    between atoms: _115  and  _116
REMARK   50  A    between atoms: _115  and  _118
REMARK   51  A    between atoms: _118  and  _119
REMARK   52  A    between atoms: _119  and  _120
REMARK   53  A    between atoms: _122  and  _124
REMARK   54  A    between atoms: _124  and  _125
REMARK   55  A    between atoms: _124  and  _127
REMARK   56  A    between atoms: _127  and  _128
REMARK   57  A    between atoms: _131  and  _133
REMARK   58  A    between atoms: _133  and  _134
REMARK   59  A    between atoms: _136  and  _138
REMARK   60  A    between atoms: _138  and  _139
REMARK   61  A    between atoms: _141  and  _143
REMARK   62  A    between atoms: _143  and  _144
REMARK   63  A    between atoms: _143  and  _146
REMARK   64  A    between atoms: _146  and  _147
REMARK   65  A    between atoms: _150  and  _152
REMARK   66  A    between atoms: _152  and  _153
REMARK   67  A    between atoms: _155  and  _157
REMARK   68  A    between atoms: _157  and  _158
REMARK   69  A    between atoms: _160  and  _162
REMARK   70  A    between atoms: _162  and  _163
REMARK   71  A    between atoms: _162  and  _165
REMARK   72  A    between atoms: _165  and  _166
REMARK   73  A    between atoms: _172  and  _174
REMARK   74  A    between atoms: _174  and  _175
REMARK   75  A    between atoms: _174  and  _177
REMARK   76  A    between atoms: _177  and  _178
REMARK   77  A    between atoms: _178  and  _179
REMARK   78  A    between atoms: _181  and  _183
REMARK   79  A    between atoms: _183  and  _184
REMARK   80  A    between atoms: _183  and  _186
REMARK   81  A    between atoms: _189  and  _191
REMARK   82  A    between atoms: _191  and  _192
REMARK   83  A    between atoms: _191  and  _194
REMARK   84  A    between atoms: _194  and  _195
REMARK   85  A    between atoms: _199  and  _200
REMARK   86  A    between atoms: _205  and  _207
REMARK   87  A    between atoms: _207  and  _208
REMARK   88  A    between atoms: _207  and  _210
REMARK   89  A    between atoms: _210  and  _211
REMARK   90  A    between atoms: _215  and  _216
REMARK   91  A    between atoms: _221  and  _223
REMARK   92  A    between atoms: _223  and  _224
REMARK   93  A    between atoms: _223  and  _226
REMARK   94  A    between atoms: _229  and  _231
REMARK   95  A    between atoms: _231  and  _232
REMARK   96  A    between atoms: _231  and  _234
REMARK   97  A    between atoms: _234  and  _235
REMARK   98  A    between atoms: _240  and  _242
REMARK   99  A    between atoms: _242  and  _243
REMARK  100  A    between atoms: _242  and  _245
REMARK  101  A    between atoms: _245  and  _246
REMARK  102  A    between atoms: _249  and  _251
REMARK  103  A    between atoms: _251  and  _252
REMARK  104  A    between atoms: _251  and  _254
REMARK  105  A    between atoms: _254  and  _255
REMARK  106  A    between atoms: _258  and  _260
REMARK  107  A    between atoms: _260  and  _261
REMARK  108  A    between atoms: _263  and  _265
REMARK  109  A    between atoms: _265  and  _266
REMARK  110  A    between atoms: _265  and  _268
REMARK  111  A    between atoms: _268  and  _269
REMARK  112  A    between atoms: _269  and  _270
REMARK  113  A    between atoms: _270  and  _271
REMARK  114  A    between atoms: _280  and  _282
REMARK  115  A    between atoms: _282  and  _283
REMARK  116  A    between atoms: _282  and  _285
REMARK  117  A    between atoms: _285  and  _286
REMARK  118  A    between atoms: _291  and  _293
REMARK  119  A    between atoms: _293  and  _294
REMARK  120  A    between atoms: _293  and  _296
REMARK  121  A    between atoms: _296  and  _297
REMARK  122  A    between atoms: _297  and  _298
REMARK  123  A    between atoms: _298  and  _299
REMARK  124  A    between atoms: _308  and  _310
REMARK  125  A    between atoms: _310  and  _311
REMARK  126  A    between atoms: _310  and  _313
REMARK  127  A    between atoms: _313  and  _314
REMARK  128  A    between atoms: _317  and  _319
REMARK  129  A    between atoms: _319  and  _320
REMARK  130  A    between atoms: _319  and  _322
REMARK  131  A    between atoms: _322  and  _323
REMARK  132  A    between atoms: _326  and  _328
REMARK  133  A    between atoms: _328  and  _329
REMARK  134  A    between atoms: _328  and  _331
REMARK  135  A    between atoms: _331  and  _332
REMARK  136  A    between atoms: _335  and  _337
REMARK  137  A    between atoms: _337  and  _338
REMARK  138  A    between atoms: _337  and  _340
REMARK  139  A    between atoms: _340  and  _341
REMARK  140  A    between atoms: _344  and  _346
REMARK  141  A    between atoms: _346  and  _347
REMARK  142  A    between atoms: _349  and  _351
REMARK  143  A    between atoms: _351  and  _352
REMARK  144  A    between atoms: _355  and  _357
REMARK  145  A    between atoms: _357  and  _358
REMARK  146  A    between atoms: _357  and  _360
REMARK  147  A    between atoms: _360  and  _361
REMARK  148  A    between atoms: _364  and  _366
REMARK  149  A    between atoms: _366  and  _367
REMARK  150  A    between atoms: _366  and  _369
REMARK  151  A    between atoms: _369  and  _370
REMARK  152  A    between atoms: _373  and  _375
REMARK  153  A    between atoms: _375  and  _376
REMARK  154  A    between atoms: _375  and  _378
REMARK  155  A    between atoms: _378  and  _379
REMARK  156  A    between atoms: _382  and  _384
REMARK  157  A    between atoms: _384  and  _385
REMARK  158  A    between atoms: _384  and  _387
REMARK  159  A    between atoms: _390  and  _392
REMARK  160  A    between atoms: _392  and  _393
REMARK  161  A    between atoms: _392  and  _395
REMARK  162  A    between atoms: _395  and  _396
REMARK  163  A    between atoms: _399  and  _401
REMARK  164  A    between atoms: _401  and  _402
REMARK  165  A    between atoms: _401  and  _404
REMARK  166  A    between atoms: _404  and  _405
REMARK  167  A    between atoms: _405  and  _406
REMARK  168  A    between atoms: _406  and  _407
REMARK  169  A    between atoms: _407  and  _408
REMARK  170  A    between atoms: _412  and  _414
REMARK  171  A    between atoms: _414  and  _415
REMARK  172  A    between atoms: _414  and  _417
REMARK  173  A    between atoms: _417  and  _418
REMARK  174  A    between atoms: _418  and  _419
REMARK  175  A    between atoms: _421  and  _423
REMARK  176  A    between atoms: _423  and  _424
REMARK  177  A    between atoms: _423  and  _426
REMARK  178  A    between atoms: _426  and  _427
REMARK  179  A    between atoms: _430  and  _432
REMARK  180  A    between atoms: _432  and  _433
REMARK  181  A    between atoms: _435  and  _437
REMARK  182  A    between atoms: _437  and  _438
REMARK  183  A    between atoms: _440  and  _442
REMARK  184  A    between atoms: _442  and  _443
REMARK  185  A    between atoms: _442  and  _445
REMARK  186  A    between atoms: _445  and  _446
REMARK  187  A    between atoms: _449  and  _451
REMARK  188  A    between atoms: _451  and  _452
REMARK  189  A    between atoms: _454  and  _456
REMARK  190  A    between atoms: _456  and  _457
REMARK  191  A    between atoms: _459  and  _461
REMARK  192  A    between atoms: _461  and  _462
REMARK  193  A    between atoms: _461  and  _464
REMARK  194  A    between atoms: _464  and  _465
REMARK  195  A    between atoms: _471  and  _473
REMARK  196  A    between atoms: _473  and  _474
REMARK  197  A    between atoms: _473  and  _476
REMARK  198  A    between atoms: _476  and  _477
REMARK  199  A    between atoms: _477  and  _478
REMARK  200  A    between atoms: _480  and  _482
REMARK  201  A    between atoms: _482  and  _483
REMARK  202  A    between atoms: _482  and  _485
REMARK  203  A    between atoms: _488  and  _490
REMARK  204  A    between atoms: _490  and  _491
REMARK  205  A    between atoms: _490  and  _493
REMARK  206  A    between atoms: _493  and  _494
REMARK  207  A    between atoms: _497  and  _499
REMARK  208  A    between atoms: _499  and  _500
REMARK  209  A    between atoms: _499  and  _502
REMARK  210  A    between atoms: _502  and  _503
REMARK  211  A    between atoms: _507  and  _508
REMARK  212  A    between atoms: _513  and  _515
REMARK  213  A    between atoms: _515  and  _516
REMARK  214  A    between atoms: _515  and  _518
REMARK  215  A    between atoms: _521  and  _523
REMARK  216  A    between atoms: _523  and  _524
REMARK  217  A    between atoms: _523  and  _526
REMARK  218  A    between atoms: _526  and  _527
REMARK  219  A    between atoms: _532  and  _534
REMARK  220  A    between atoms: _534  and  _535
REMARK  221  A    between atoms: _534  and  _537
REMARK  222  A    between atoms: _537  and  _538
REMARK  223  A    between atoms: _541  and  _543
REMARK  224  A    between atoms: _543  and  _544
REMARK  225  A    between atoms: _543  and  _546
REMARK  226  A    between atoms: _546  and  _547
REMARK  227  A    between atoms: _550  and  _552
REMARK  228  A    between atoms: _552  and  _553
REMARK  229  A    between atoms: _555  and  _557
REMARK  230  A    between atoms: _557  and  _558
REMARK  231  A    between atoms: _557  and  _560
REMARK  232  A    between atoms: _560  and  _561
REMARK  233  A    between atoms: _561  and  _562
REMARK  234  A    between atoms: _562  and  _563
REMARK  235  A    between atoms: _572  and  _574
REMARK  236  A    between atoms: _574  and  _575
REMARK  237  A    between atoms: _574  and  _577
REMARK  238  A    between atoms: _577  and  _578
REMARK                            x       y       z     vdW  Elec       q    Type
REMARK                         _______ _______ _______ _____ _____    ______ ____
ROOT
ATOM      1  O   HOH     1     -25.202 -16.762 -16.298  0.00  0.00    +0.000 OA
ENDROOT
TORSDOF 0
REMARK  Name = ../refined-set-2016/3nu6/3nu6_pocket.pdb
REMARK  238 active torsions:
REMARK  status: ('A' for Active; 'I' for Inactive)
REMARK    1  A    between atoms: _1  and  _3
REMARK    2  A    between atoms: _3  and  _4
REMARK    3  A    between atoms: _3  and  _6
REMARK    4  A    between atoms: _6  and  _7
REMARK    5  A    between atoms: _7  and  _8
REMARK    6  A    between atoms: _8  and  _9
REMARK    7  A    between atoms: _18  and  _20
REMARK    8  A    between atoms: _20  and  _21
REMARK    9  A    between atoms: _20  and  _23
REMARK   10  A    between atoms: _23  and  _24
REMARK   11  A    between atoms: _27  and  _29
REMARK   12  A    between atoms: _29  and  _30
REMARK   13  A    between atoms: _29  and  _32
REMARK   14  A    between atoms: _32  and  _33
REMARK   15  A    between atoms: _36  and  _38
REMARK   16  A    between atoms: _38  and  _39
REMARK   17  A    between atoms: _38  and  _41
REMARK   18  A    between atoms: _41  and  _42
REMARK   19  A    between atoms: _45  and  _47
REMARK   20  A    between atoms: _47  and  _48
REMARK   21  A    between atoms: _47  and  _50
REMARK   22  A    between atoms: _50  and  _51
REMARK   23  A    between atoms: _54  and  _56
REMARK   24  A    between atoms: _56  and  _57
REMARK   25  A    between atoms: _59  and  _61
REMARK   26  A    between atoms: _61  and  _62
REMARK   27  A    between atoms: _65  and  _67
REMARK   28  A    between atoms: _67  and  _68
REMARK   29  A    between atoms: _67  and  _70
REMARK   30  A    between atoms: _70  and  _71
REMARK   31  A    between atoms: _74  and  _76
REMARK   32  A    between atoms: _76  and  _77
REMARK   33  A    between atoms: _76  and  _79
REMARK   34  A    between atoms: _79  and  _80
REMARK   35  A    between atoms: _83  and  _85
REMARK   36  A    between atoms: _85  and  _86
REMARK   37  A    between atoms: _85  and  _88
REMARK   38  A    between atoms: _88  and  _89
REMARK   39  A    between atoms: _92  and  _94
REMARK   40  A    between atoms: _94  and  _95
REMARK   41  A    between atoms: _94  and  _97
REMARK   42  A    between atoms: _100  and  _102
REMARK   43  A    between atoms: _102  and  _103
REMARK   44  A    between atoms: _102  and  _105
REMARK   45  A    between atoms: _106  and  _107
REMARK   46  A    between atoms: _107  and  _108
REMARK   47  A    between atoms: _108  and  _109
REMARK   48  A    between atoms: _113  and  _115
REMARK   49  A    between atoms: _115  and  _116
REMARK   50  A    between atoms: _115  and  _118
REMARK   51  A    between atoms: _118  and  _119
REMARK   52  A    between atoms: _119  and  _120
REMARK   53  A    between atoms: _122  and  _124
REMARK   54  A    between atoms: _124  and  _125
REMARK   55  A    between atoms: _124  and  _127
REMARK   56  A    between atoms: _127  and  _128
REMARK   57  A    between atoms: _131  and  _133
REMARK   58  A    between atoms: _133  and  _134
REMARK   59  A    between atoms: _136  and  _138
REMARK   60  A    between atoms: _138  and  _139
REMARK   61  A    between atoms: _141  and  _143
REMARK   62  A    between atoms: _143  and  _144
REMARK   63  A    between atoms: _143  and  _146
REMARK   64  A    between atoms: _146  and  _147
REMARK   65  A    between atoms: _150  and  _152
REMARK   66  A    between atoms: _152  and  _153
REMARK   67  A    between atoms: _155  and  _157
REMARK   68  A    between atoms: _157  and  _158
REMARK   69  A    between atoms: _160  and  _162
REMARK   70  A    between atoms: _162  and  _163
REMARK   71  A    between atoms: _162  and  _165
REMARK   72  A    between atoms: _165  and  _166
REMARK   73  A    between atoms: _172  and  _174
REMARK   74  A    between atoms: _174  and  _175
REMARK   75  A    between atoms: _174  and  _177
REMARK   76  A    between atoms: _177  and  _178
REMARK   77  A    between atoms: _178  and  _179
REMARK   78  A    between atoms: _181  and  _183
REMARK   79  A    between atoms: _183  and  _184
REMARK   80  A    between atoms: _183  and  _186
REMARK   81  A    between atoms: _189  and  _191
REMARK   82  A    between atoms: _191  and  _192
REMARK   83  A    between atoms: _191  and  _194
REMARK   84  A    between atoms: _194  and  _195
REMARK   85  A    between atoms: _199  and  _200
REMARK   86  A    between atoms: _205  and  _207
REMARK   87  A    between atoms: _207  and  _208
REMARK   88  A    between atoms: _207  and  _210
REMARK   89  A    between atoms: _210  and  _211
REMARK   90  A    between atoms: _215  and  _216
REMARK   91  A    between atoms: _221  and  _223
REMARK   92  A    between atoms: _223  and  _224
REMARK   93  A    between atoms: _223  and  _226
REMARK   94  A    between atoms: _229  and  _231
REMARK   95  A    between atoms: _231  and  _232
REMARK   96  A    between atoms: _231  and  _234
REMARK   97  A    between atoms: _234  and  _235
REMARK   98  A    between atoms: _240  and  _242
REMARK   99  A    between atoms: _242  and  _243
REMARK  100  A    between atoms: _242  and  _245
REMARK  101  A    between atoms: _245  and  _246
REMARK  102  A    between atoms: _249  and  _251
REMARK  103  A    between atoms: _251  and  _252
REMARK  104  A    between atoms: _251  and  _254
REMARK  105  A    between atoms: _254  and  _255
REMARK  106  A    between atoms: _258  and  _260
REMARK  107  A    between atoms: _260  and  _261
REMARK  108  A    between atoms: _263  and  _265
REMARK  109  A    between atoms: _265  and  _266
REMARK  110  A    between atoms: _265  and  _268
REMARK  111  A    between atoms: _268  and  _269
REMARK  112  A    between atoms: _269  and  _270
REMARK  113  A    between atoms: _270  and  _271
REMARK  114  A    between atoms: _280  and  _282
REMARK  115  A    between atoms: _282  and  _283
REMARK  116  A    between atoms: _282  and  _285
REMARK  117  A    between atoms: _285  and  _286
REMARK  118  A    between atoms: _291  and  _293
REMARK  119  A    between atoms: _293  and  _294
REMARK  120  A    between atoms: _293  and  _296
REMARK  121  A    between atoms: _296  and  _297
REMARK  122  A    between atoms: _297  and  _298
REMARK  123  A    between atoms: _298  and  _299
REMARK  124  A    between atoms: _308  and  _310
REMARK  125  A    between atoms: _310  and  _311
REMARK  126  A    between atoms: _310  and  _313
REMARK  127  A    between atoms: _313  and  _314
REMARK  128  A    between atoms: _317  and  _319
REMARK  129  A    between atoms: _319  and  _320
REMARK  130  A    between atoms: _319  and  _322
REMARK  131  A    between atoms: _322  and  _323
REMARK  132  A    between atoms: _326  and  _328
REMARK  133  A    between atoms: _328  and  _329
REMARK  134  A    between atoms: _328  and  _331
REMARK  135  A    between atoms: _331  and  _332
REMARK  136  A    between atoms: _335  and  _337
REMARK  137  A    between atoms: _337  and  _338
REMARK  138  A    between atoms: _337  and  _340
REMARK  139  A    between atoms: _340  and  _341
REMARK  140  A    between atoms: _344  and  _346
REMARK  141  A    between atoms: _346  and  _347
REMARK  142  A    between atoms: _349  and  _351
REMARK  143  A    between atoms: _351  and  _352
REMARK  144  A    between atoms: _355  and  _357
REMARK  145  A    between atoms: _357  and  _358
REMARK  146  A    between atoms: _357  and  _360
REMARK  147  A    between atoms: _360  and  _361
REMARK  148  A    between atoms: _364  and  _366
REMARK  149  A    between atoms: _366  and  _367
REMARK  150  A    between atoms: _366  and  _369
REMARK  151  A    between atoms: _369  and  _370
REMARK  152  A    between atoms: _373  and  _375
REMARK  153  A    between atoms: _375  and  _376
REMARK  154  A    between atoms: _375  and  _378
REMARK  155  A    between atoms: _378  and  _379
REMARK  156  A    between atoms: _382  and  _384
REMARK  157  A    between atoms: _384  and  _385
REMARK  158  A    between atoms: _384  and  _387
REMARK  159  A    between atoms: _390  and  _392
REMARK  160  A    between atoms: _392  and  _393
REMARK  161  A    between atoms: _392  and  _395
REMARK  162  A    between atoms: _395  and  _396
REMARK  163  A    between atoms: _399  and  _401
REMARK  164  A    between atoms: _401  and  _402
REMARK  165  A    between atoms: _401  and  _404
REMARK  166  A    between atoms: _404  and  _405
REMARK  167  A    between atoms: _405  and  _406
REMARK  168  A    between atoms: _406  and  _407
REMARK  169  A    between atoms: _407  and  _408
REMARK  170  A    between atoms: _412  and  _414
REMARK  171  A    between atoms: _414  and  _415
REMARK  172  A    between atoms: _414  and  _417
REMARK  173  A    between atoms: _417  and  _418
REMARK  174  A    between atoms: _418  and  _419
REMARK  175  A    between atoms: _421  and  _423
REMARK  176  A    between atoms: _423  and  _424
REMARK  177  A    between atoms: _423  and  _426
REMARK  178  A    between atoms: _426  and  _427
REMARK  179  A    between atoms: _430  and  _432
REMARK  180  A    between atoms: _432  and  _433
REMARK  181  A    between atoms: _435  and  _437
REMARK  182  A    between atoms: _437  and  _438
REMARK  183  A    between atoms: _440  and  _442
REMARK  184  A    between atoms: _442  and  _443
REMARK  185  A    between atoms: _442  and  _445
REMARK  186  A    between atoms: _445  and  _446
REMARK  187  A    between atoms: _449  and  _451
REMARK  188  A    between atoms: _451  and  _452
REMARK  189  A    between atoms: _454  and  _456
REMARK  190  A    between atoms: _456  and  _457
REMARK  191  A    between atoms: _459  and  _461
REMARK  192  A    between atoms: _461  and  _462
REMARK  193  A    between atoms: _461  and  _464
REMARK  194  A    between atoms: _464  and  _465
REMARK  195  A    between atoms: _471  and  _473
REMARK  196  A    between atoms: _473  and  _474
REMARK  197  A    between atoms: _473  and  _476
REMARK  198  A    between atoms: _476  and  _477
REMARK  199  A    between atoms: _477  and  _478
REMARK  200  A    between atoms: _480  and  _482
REMARK  201  A    between atoms: _482  and  _483
REMARK  202  A    between atoms: _482  and  _485
REMARK  203  A    between atoms: _488  and  _490
REMARK  204  A    between atoms: _490  and  _491
REMARK  205  A    between atoms: _490  and  _493
REMARK  206  A    between atoms: _493  and  _494
REMARK  207  A    between atoms: _497  and  _499
REMARK  208  A    between atoms: _499  and  _500
REMARK  209  A    between atoms: _499  and  _502
REMARK  210  A    between atoms: _502  and  _503
REMARK  211  A    between atoms: _507  and  _508
REMARK  212  A    between atoms: _513  and  _515
REMARK  213  A    between atoms: _515  and  _516
REMARK  214  A    between atoms: _515  and  _518
REMARK  215  A    between atoms: _521  and  _523
REMARK  216  A    between atoms: _523  and  _524
REMARK  217  A    between atoms: _523  and  _526
REMARK  218  A    between atoms: _526  and  _527
REMARK  219  A    between atoms: _532  and  _534
REMARK  220  A    between atoms: _534  and  _535
REMARK  221  A    between atoms: _534  and  _537
REMARK  222  A    between atoms: _537  and  _538
REMARK  223  A    between atoms: _541  and  _543
REMARK  224  A    between atoms: _543  and  _544
REMARK  225  A    between atoms: _543  and  _546
REMARK  226  A    between atoms: _546  and  _547
REMARK  227  A    between atoms: _550  and  _552
REMARK  228  A    between atoms: _552  and  _553
REMARK  229  A    between atoms: _555  and  _557
REMARK  230  A    between atoms: _557  and  _558
REMARK  231  A    between atoms: _557  and  _560
REMARK  232  A    between atoms: _560  and  _561
REMARK  233  A    between atoms: _561  and  _562
REMARK  234  A    between atoms: _562  and  _563
REMARK  235  A    between atoms: _572  and  _574
REMARK  236  A    between atoms: _574  and  _575
REMARK  237  A    between atoms: _574  and  _577
REMARK  238  A    between atoms: _577  and  _578
REMARK                            x       y       z     vdW  Elec       q    Type
REMARK                         _______ _______ _______ _____ _____    ______ ____
ROOT
ATOM      1  O   HOH     1     -22.263 -26.872 -19.592  0.00  0.00    +0.000 OA
ENDROOT
TORSDOF 0
REMARK  Name = ../refined-set-2016/3nu6/3nu6_pocket.pdb
REMARK  238 active torsions:
REMARK  status: ('A' for Active; 'I' for Inactive)
REMARK    1  A    between atoms: _1  and  _3
REMARK    2  A    between atoms: _3  and  _4
REMARK    3  A    between atoms: _3  and  _6
REMARK    4  A    between atoms: _6  and  _7
REMARK    5  A    between atoms: _7  and  _8
REMARK    6  A    between atoms: _8  and  _9
REMARK    7  A    between atoms: _18  and  _20
REMARK    8  A    between atoms: _20  and  _21
REMARK    9  A    between atoms: _20  and  _23
REMARK   10  A    between atoms: _23  and  _24
REMARK   11  A    between atoms: _27  and  _29
REMARK   12  A    between atoms: _29  and  _30
REMARK   13  A    between atoms: _29  and  _32
REMARK   14  A    between atoms: _32  and  _33
REMARK   15  A    between atoms: _36  and  _38
REMARK   16  A    between atoms: _38  and  _39
REMARK   17  A    between atoms: _38  and  _41
REMARK   18  A    between atoms: _41  and  _42
REMARK   19  A    between atoms: _45  and  _47
REMARK   20  A    between atoms: _47  and  _48
REMARK   21  A    between atoms: _47  and  _50
REMARK   22  A    between atoms: _50  and  _51
REMARK   23  A    between atoms: _54  and  _56
REMARK   24  A    between atoms: _56  and  _57
REMARK   25  A    between atoms: _59  and  _61
REMARK   26  A    between atoms: _61  and  _62
REMARK   27  A    between atoms: _65  and  _67
REMARK   28  A    between atoms: _67  and  _68
REMARK   29  A    between atoms: _67  and  _70
REMARK   30  A    between atoms: _70  and  _71
REMARK   31  A    between atoms: _74  and  _76
REMARK   32  A    between atoms: _76  and  _77
REMARK   33  A    between atoms: _76  and  _79
REMARK   34  A    between atoms: _79  and  _80
REMARK   35  A    between atoms: _83  and  _85
REMARK   36  A    between atoms: _85  and  _86
REMARK   37  A    between atoms: _85  and  _88
REMARK   38  A    between atoms: _88  and  _89
REMARK   39  A    between atoms: _92  and  _94
REMARK   40  A    between atoms: _94  and  _95
REMARK   41  A    between atoms: _94  and  _97
REMARK   42  A    between atoms: _100  and  _102
REMARK   43  A    between atoms: _102  and  _103
REMARK   44  A    between atoms: _102  and  _105
REMARK   45  A    between atoms: _106  and  _107
REMARK   46  A    between atoms: _107  and  _108
REMARK   47  A    between atoms: _108  and  _109
REMARK   48  A    between atoms: _113  and  _115
REMARK   49  A    between atoms: _115  and  _116
REMARK   50  A    between atoms: _115  and  _118
REMARK   51  A    between atoms: _118  and  _119
REMARK   52  A    between atoms: _119  and  _120
REMARK   53  A    between atoms: _122  and  _124
REMARK   54  A    between atoms: _124  and  _125
REMARK   55  A    between atoms: _124  and  _127
REMARK   56  A    between atoms: _127  and  _128
REMARK   57  A    between atoms: _131  and  _133
REMARK   58  A    between atoms: _133  and  _134
REMARK   59  A    between atoms: _136  and  _138
REMARK   60  A    between atoms: _138  and  _139
REMARK   61  A    between atoms: _141  and  _143
REMARK   62  A    between atoms: _143  and  _144
REMARK   63  A    between atoms: _143  and  _146
REMARK   64  A    between atoms: _146  and  _147
REMARK   65  A    between atoms: _150  and  _152
REMARK   66  A    between atoms: _152  and  _153
REMARK   67  A    between atoms: _155  and  _157
REMARK   68  A    between atoms: _157  and  _158
REMARK   69  A    between atoms: _160  and  _162
REMARK   70  A    between atoms: _162  and  _163
REMARK   71  A    between atoms: _162  and  _165
REMARK   72  A    between atoms: _165  and  _166
REMARK   73  A    between atoms: _172  and  _174
REMARK   74  A    between atoms: _174  and  _175
REMARK   75  A    between atoms: _174  and  _177
REMARK   76  A    between atoms: _177  and  _178
REMARK   77  A    between atoms: _178  and  _179
REMARK   78  A    between atoms: _181  and  _183
REMARK   79  A    between atoms: _183  and  _184
REMARK   80  A    between atoms: _183  and  _186
REMARK   81  A    between atoms: _189  and  _191
REMARK   82  A    between atoms: _191  and  _192
REMARK   83  A    between atoms: _191  and  _194
REMARK   84  A    between atoms: _194  and  _195
REMARK   85  A    between atoms: _199  and  _200
REMARK   86  A    between atoms: _205  and  _207
REMARK   87  A    between atoms: _207  and  _208
REMARK   88  A    between atoms: _207  and  _210
REMARK   89  A    between atoms: _210  and  _211
REMARK   90  A    between atoms: _215  and  _216
REMARK   91  A    between atoms: _221  and  _223
REMARK   92  A    between atoms: _223  and  _224
REMARK   93  A    between atoms: _223  and  _226
REMARK   94  A    between atoms: _229  and  _231
REMARK   95  A    between atoms: _231  and  _232
REMARK   96  A    between atoms: _231  and  _234
REMARK   97  A    between atoms: _234  and  _235
REMARK   98  A    between atoms: _240  and  _242
REMARK   99  A    between atoms: _242  and  _243
REMARK  100  A    between atoms: _242  and  _245
REMARK  101  A    between atoms: _245  and  _246
REMARK  102  A    between atoms: _249  and  _251
REMARK  103  A    between atoms: _251  and  _252
REMARK  104  A    between atoms: _251  and  _254
REMARK  105  A    between atoms: _254  and  _255
REMARK  106  A    between atoms: _258  and  _260
REMARK  107  A    between atoms: _260  and  _261
REMARK  108  A    between atoms: _263  and  _265
REMARK  109  A    between atoms: _265  and  _266
REMARK  110  A    between atoms: _265  and  _268
REMARK  111  A    between atoms: _268  and  _269
REMARK  112  A    between atoms: _269  and  _270
REMARK  113  A    between atoms: _270  and  _271
REMARK  114  A    between atoms: _280  and  _282
REMARK  115  A    between atoms: _282  and  _283
REMARK  116  A    between atoms: _282  and  _285
REMARK  117  A    between atoms: _285  and  _286
REMARK  118  A    between atoms: _291  and  _293
REMARK  119  A    between atoms: _293  and  _294
REMARK  120  A    between atoms: _293  and  _296
REMARK  121  A    between atoms: _296  and  _297
REMARK  122  A    between atoms: _297  and  _298
REMARK  123  A    between atoms: _298  and  _299
REMARK  124  A    between atoms: _308  and  _310
REMARK  125  A    between atoms: _310  and  _311
REMARK  126  A    between atoms: _310  and  _313
REMARK  127  A    between atoms: _313  and  _314
REMARK  128  A    between atoms: _317  and  _319
REMARK  129  A    between atoms: _319  and  _320
REMARK  130  A    between atoms: _319  and  _322
REMARK  131  A    between atoms: _322  and  _323
REMARK  132  A    between atoms: _326  and  _328
REMARK  133  A    between atoms: _328  and  _329
REMARK  134  A    between atoms: _328  and  _331
REMARK  135  A    between atoms: _331  and  _332
REMARK  136  A    between atoms: _335  and  _337
REMARK  137  A    between atoms: _337  and  _338
REMARK  138  A    between atoms: _337  and  _340
REMARK  139  A    between atoms: _340  and  _341
REMARK  140  A    between atoms: _344  and  _346
REMARK  141  A    between atoms: _346  and  _347
REMARK  142  A    between atoms: _349  and  _351
REMARK  143  A    between atoms: _351  and  _352
REMARK  144  A    between atoms: _355  and  _357
REMARK  145  A    between atoms: _357  and  _358
REMARK  146  A    between atoms: _357  and  _360
REMARK  147  A    between atoms: _360  and  _361
REMARK  148  A    between atoms: _364  and  _366
REMARK  149  A    between atoms: _366  and  _367
REMARK  150  A    between atoms: _366  and  _369
REMARK  151  A    between atoms: _369  and  _370
REMARK  152  A    between atoms: _373  and  _375
REMARK  153  A    between atoms: _375  and  _376
REMARK  154  A    between atoms: _375  and  _378
REMARK  155  A    between atoms: _378  and  _379
REMARK  156  A    between atoms: _382  and  _384
REMARK  157  A    between atoms: _384  and  _385
REMARK  158  A    between atoms: _384  and  _387
REMARK  159  A    between atoms: _390  and  _392
REMARK  160  A    between atoms: _392  and  _393
REMARK  161  A    between atoms: _392  and  _395
REMARK  162  A    between atoms: _395  and  _396
REMARK  163  A    between atoms: _399  and  _401
REMARK  164  A    between atoms: _401  and  _402
REMARK  165  A    between atoms: _401  and  _404
REMARK  166  A    between atoms: _404  and  _405
REMARK  167  A    between atoms: _405  and  _406
REMARK  168  A    between atoms: _406  and  _407
REMARK  169  A    between atoms: _407  and  _408
REMARK  170  A    between atoms: _412  and  _414
REMARK  171  A    between atoms: _414  and  _415
REMARK  172  A    between atoms: _414  and  _417
REMARK  173  A    between atoms: _417  and  _418
REMARK  174  A    between atoms: _418  and  _419
REMARK  175  A    between atoms: _421  and  _423
REMARK  176  A    between atoms: _423  and  _424
REMARK  177  A    between atoms: _423  and  _426
REMARK  178  A    between atoms: _426  and  _427
REMARK  179  A    between atoms: _430  and  _432
REMARK  180  A    between atoms: _432  and  _433
REMARK  181  A    between atoms: _435  and  _437
REMARK  182  A    between atoms: _437  and  _438
REMARK  183  A    between atoms: _440  and  _442
REMARK  184  A    between atoms: _442  and  _443
REMARK  185  A    between atoms: _442  and  _445
REMARK  186  A    between atoms: _445  and  _446
REMARK  187  A    between atoms: _449  and  _451
REMARK  188  A    between atoms: _451  and  _452
REMARK  189  A    between atoms: _454  and  _456
REMARK  190  A    between atoms: _456  and  _457
REMARK  191  A    between atoms: _459  and  _461
REMARK  192  A    between atoms: _461  and  _462
REMARK  193  A    between atoms: _461  and  _464
REMARK  194  A    between atoms: _464  and  _465
REMARK  195  A    between atoms: _471  and  _473
REMARK  196  A    between atoms: _473  and  _474
REMARK  197  A    between atoms: _473  and  _476
REMARK  198  A    between atoms: _476  and  _477
REMARK  199  A    between atoms: _477  and  _478
REMARK  200  A    between atoms: _480  and  _482
REMARK  201  A    between atoms: _482  and  _483
REMARK  202  A    between atoms: _482  and  _485
REMARK  203  A    between atoms: _488  and  _490
REMARK  204  A    between atoms: _490  and  _491
REMARK  205  A    between atoms: _490  and  _493
REMARK  206  A    between atoms: _493  and  _494
REMARK  207  A    between atoms: _497  and  _499
REMARK  208  A    between atoms: _499  and  _500
REMARK  209  A    between atoms: _499  and  _502
REMARK  210  A    between atoms: _502  and  _503
REMARK  211  A    between atoms: _507  and  _508
REMARK  212  A    between atoms: _513  and  _515
REMARK  213  A    between atoms: _515  and  _516
REMARK  214  A    between atoms: _515  and  _518
REMARK  215  A    between atoms: _521  and  _523
REMARK  216  A    between atoms: _523  and  _524
REMARK  217  A    between atoms: _523  and  _526
REMARK  218  A    between atoms: _526  and  _527
REMARK  219  A    between atoms: _532  and  _534
REMARK  220  A    between atoms: _534  and  _535
REMARK  221  A    between atoms: _534  and  _537
REMARK  222  A    between atoms: _537  and  _538
REMARK  223  A    between atoms: _541  and  _543
REMARK  224  A    between atoms: _543  and  _544
REMARK  225  A    between atoms: _543  and  _546
REMARK  226  A    between atoms: _546  and  _547
REMARK  227  A    between atoms: _550  and  _552
REMARK  228  A    between atoms: _552  and  _553
REMARK  229  A    between atoms: _555  and  _557
REMARK  230  A    between atoms: _557  and  _558
REMARK  231  A    between atoms: _557  and  _560
REMARK  232  A    between atoms: _560  and  _561
REMARK  233  A    between atoms: _561  and  _562
REMARK  234  A    between atoms: _562  and  _563
REMARK  235  A    between atoms: _572  and  _574
REMARK  236  A    between atoms: _574  and  _575
REMARK  237  A    between atoms: _574  and  _577
REMARK  238  A    between atoms: _577  and  _578
REMARK                            x       y       z     vdW  Elec       q    Type
REMARK                         _______ _______ _______ _____ _____    ______ ____
ROOT
ATOM      1  O   HOH     1      -6.222 -20.367 -11.131  0.00  0.00    +0.000 OA
ENDROOT
TORSDOF 0
REMARK  Name = ../refined-set-2016/3nu6/3nu6_pocket.pdb
REMARK  238 active torsions:
REMARK  status: ('A' for Active; 'I' for Inactive)
REMARK    1  A    between atoms: _1  and  _3
REMARK    2  A    between atoms: _3  and  _4
REMARK    3  A    between atoms: _3  and  _6
REMARK    4  A    between atoms: _6  and  _7
REMARK    5  A    between atoms: _7  and  _8
REMARK    6  A    between atoms: _8  and  _9
REMARK    7  A    between atoms: _18  and  _20
REMARK    8  A    between atoms: _20  and  _21
REMARK    9  A    between atoms: _20  and  _23
REMARK   10  A    between atoms: _23  and  _24
REMARK   11  A    between atoms: _27  and  _29
REMARK   12  A    between atoms: _29  and  _30
REMARK   13  A    between atoms: _29  and  _32
REMARK   14  A    between atoms: _32  and  _33
REMARK   15  A    between atoms: _36  and  _38
REMARK   16  A    between atoms: _38  and  _39
REMARK   17  A    between atoms: _38  and  _41
REMARK   18  A    between atoms: _41  and  _42
REMARK   19  A    between atoms: _45  and  _47
REMARK   20  A    between atoms: _47  and  _48
REMARK   21  A    between atoms: _47  and  _50
REMARK   22  A    between atoms: _50  and  _51
REMARK   23  A    between atoms: _54  and  _56
REMARK   24  A    between atoms: _56  and  _57
REMARK   25  A    between atoms: _59  and  _61
REMARK   26  A    between atoms: _61  and  _62
REMARK   27  A    between atoms: _65  and  _67
REMARK   28  A    between atoms: _67  and  _68
REMARK   29  A    between atoms: _67  and  _70
REMARK   30  A    between atoms: _70  and  _71
REMARK   31  A    between atoms: _74  and  _76
REMARK   32  A    between atoms: _76  and  _77
REMARK   33  A    between atoms: _76  and  _79
REMARK   34  A    between atoms: _79  and  _80
REMARK   35  A    between atoms: _83  and  _85
REMARK   36  A    between atoms: _85  and  _86
REMARK   37  A    between atoms: _85  and  _88
REMARK   38  A    between atoms: _88  and  _89
REMARK   39  A    between atoms: _92  and  _94
REMARK   40  A    between atoms: _94  and  _95
REMARK   41  A    between atoms: _94  and  _97
REMARK   42  A    between atoms: _100  and  _102
REMARK   43  A    between atoms: _102  and  _103
REMARK   44  A    between atoms: _102  and  _105
REMARK   45  A    between atoms: _106  and  _107
REMARK   46  A    between atoms: _107  and  _108
REMARK   47  A    between atoms: _108  and  _109
REMARK   48  A    between atoms: _113  and  _115
REMARK   49  A    between atoms: _115  and  _116
REMARK   50  A    between atoms: _115  and  _118
REMARK   51  A    between atoms: _118  and  _119
REMARK   52  A    between atoms: _119  and  _120
REMARK   53  A    between atoms: _122  and  _124
REMARK   54  A    between atoms: _124  and  _125
REMARK   55  A    between atoms: _124  and  _127
REMARK   56  A    between atoms: _127  and  _128
REMARK   57  A    between atoms: _131  and  _133
REMARK   58  A    between atoms: _133  and  _134
REMARK   59  A    between atoms: _136  and  _138
REMARK   60  A    between atoms: _138  and  _139
REMARK   61  A    between atoms: _141  and  _143
REMARK   62  A    between atoms: _143  and  _144
REMARK   63  A    between atoms: _143  and  _146
REMARK   64  A    between atoms: _146  and  _147
REMARK   65  A    between atoms: _150  and  _152
REMARK   66  A    between atoms: _152  and  _153
REMARK   67  A    between atoms: _155  and  _157
REMARK   68  A    between atoms: _157  and  _158
REMARK   69  A    between atoms: _160  and  _162
REMARK   70  A    between atoms: _162  and  _163
REMARK   71  A    between atoms: _162  and  _165
REMARK   72  A    between atoms: _165  and  _166
REMARK   73  A    between atoms: _172  and  _174
REMARK   74  A    between atoms: _174  and  _175
REMARK   75  A    between atoms: _174  and  _177
REMARK   76  A    between atoms: _177  and  _178
REMARK   77  A    between atoms: _178  and  _179
REMARK   78  A    between atoms: _181  and  _183
REMARK   79  A    between atoms: _183  and  _184
REMARK   80  A    between atoms: _183  and  _186
REMARK   81  A    between atoms: _189  and  _191
REMARK   82  A    between atoms: _191  and  _192
REMARK   83  A    between atoms: _191  and  _194
REMARK   84  A    between atoms: _194  and  _195
REMARK   85  A    between atoms: _199  and  _200
REMARK   86  A    between atoms: _205  and  _207
REMARK   87  A    between atoms: _207  and  _208
REMARK   88  A    between atoms: _207  and  _210
REMARK   89  A    between atoms: _210  and  _211
REMARK   90  A    between atoms: _215  and  _216
REMARK   91  A    between atoms: _221  and  _223
REMARK   92  A    between atoms: _223  and  _224
REMARK   93  A    between atoms: _223  and  _226
REMARK   94  A    between atoms: _229  and  _231
REMARK   95  A    between atoms: _231  and  _232
REMARK   96  A    between atoms: _231  and  _234
REMARK   97  A    between atoms: _234  and  _235
REMARK   98  A    between atoms: _240  and  _242
REMARK   99  A    between atoms: _242  and  _243
REMARK  100  A    between atoms: _242  and  _245
REMARK  101  A    between atoms: _245  and  _246
REMARK  102  A    between atoms: _249  and  _251
REMARK  103  A    between atoms: _251  and  _252
REMARK  104  A    between atoms: _251  and  _254
REMARK  105  A    between atoms: _254  and  _255
REMARK  106  A    between atoms: _258  and  _260
REMARK  107  A    between atoms: _260  and  _261
REMARK  108  A    between atoms: _263  and  _265
REMARK  109  A    between atoms: _265  and  _266
REMARK  110  A    between atoms: _265  and  _268
REMARK  111  A    between atoms: _268  and  _269
REMARK  112  A    between atoms: _269  and  _270
REMARK  113  A    between atoms: _270  and  _271
REMARK  114  A    between atoms: _280  and  _282
REMARK  115  A    between atoms: _282  and  _283
REMARK  116  A    between atoms: _282  and  _285
REMARK  117  A    between atoms: _285  and  _286
REMARK  118  A    between atoms: _291  and  _293
REMARK  119  A    between atoms: _293  and  _294
REMARK  120  A    between atoms: _293  and  _296
REMARK  121  A    between atoms: _296  and  _297
REMARK  122  A    between atoms: _297  and  _298
REMARK  123  A    between atoms: _298  and  _299
REMARK  124  A    between atoms: _308  and  _310
REMARK  125  A    between atoms: _310  and  _311
REMARK  126  A    between atoms: _310  and  _313
REMARK  127  A    between atoms: _313  and  _314
REMARK  128  A    between atoms: _317  and  _319
REMARK  129  A    between atoms: _319  and  _320
REMARK  130  A    between atoms: _319  and  _322
REMARK  131  A    between atoms: _322  and  _323
REMARK  132  A    between atoms: _326  and  _328
REMARK  133  A    between atoms: _328  and  _329
REMARK  134  A    between atoms: _328  and  _331
REMARK  135  A    between atoms: _331  and  _332
REMARK  136  A    between atoms: _335  and  _337
REMARK  137  A    between atoms: _337  and  _338
REMARK  138  A    between atoms: _337  and  _340
REMARK  139  A    between atoms: _340  and  _341
REMARK  140  A    between atoms: _344  and  _346
REMARK  141  A    between atoms: _346  and  _347
REMARK  142  A    between atoms: _349  and  _351
REMARK  143  A    between atoms: _351  and  _352
REMARK  144  A    between atoms: _355  and  _357
REMARK  145  A    between atoms: _357  and  _358
REMARK  146  A    between atoms: _357  and  _360
REMARK  147  A    between atoms: _360  and  _361
REMARK  148  A    between atoms: _364  and  _366
REMARK  149  A    between atoms: _366  and  _367
REMARK  150  A    between atoms: _366  and  _369
REMARK  151  A    between atoms: _369  and  _370
REMARK  152  A    between atoms: _373  and  _375
REMARK  153  A    between atoms: _375  and  _376
REMARK  154  A    between atoms: _375  and  _378
REMARK  155  A    between atoms: _378  and  _379
REMARK  156  A    between atoms: _382  and  _384
REMARK  157  A    between atoms: _384  and  _385
REMARK  158  A    between atoms: _384  and  _387
REMARK  159  A    between atoms: _390  and  _392
REMARK  160  A    between atoms: _392  and  _393
REMARK  161  A    between atoms: _392  and  _395
REMARK  162  A    between atoms: _395  and  _396
REMARK  163  A    between atoms: _399  and  _401
REMARK  164  A    between atoms: _401  and  _402
REMARK  165  A    between atoms: _401  and  _404
REMARK  166  A    between atoms: _404  and  _405
REMARK  167  A    between atoms: _405  and  _406
REMARK  168  A    between atoms: _406  and  _407
REMARK  169  A    between atoms: _407  and  _408
REMARK  170  A    between atoms: _412  and  _414
REMARK  171  A    between atoms: _414  and  _415
REMARK  172  A    between atoms: _414  and  _417
REMARK  173  A    between atoms: _417  and  _418
REMARK  174  A    between atoms: _418  and  _419
REMARK  175  A    between atoms: _421  and  _423
REMARK  176  A    between atoms: _423  and  _424
REMARK  177  A    between atoms: _423  and  _426
REMARK  178  A    between atoms: _426  and  _427
REMARK  179  A    between atoms: _430  and  _432
REMARK  180  A    between atoms: _432  and  _433
REMARK  181  A    between atoms: _435  and  _437
REMARK  182  A    between atoms: _437  and  _438
REMARK  183  A    between atoms: _440  and  _442
REMARK  184  A    between atoms: _442  and  _443
REMARK  185  A    between atoms: _442  and  _445
REMARK  186  A    between atoms: _445  and  _446
REMARK  187  A    between atoms: _449  and  _451
REMARK  188  A    between atoms: _451  and  _452
REMARK  189  A    between atoms: _454  and  _456
REMARK  190  A    between atoms: _456  and  _457
REMARK  191  A    between atoms: _459  and  _461
REMARK  192  A    between atoms: _461  and  _462
REMARK  193  A    between atoms: _461  and  _464
REMARK  194  A    between atoms: _464  and  _465
REMARK  195  A    between atoms: _471  and  _473
REMARK  196  A    between atoms: _473  and  _474
REMARK  197  A    between atoms: _473  and  _476
REMARK  198  A    between atoms: _476  and  _477
REMARK  199  A    between atoms: _477  and  _478
REMARK  200  A    between atoms: _480  and  _482
REMARK  201  A    between atoms: _482  and  _483
REMARK  202  A    between atoms: _482  and  _485
REMARK  203  A    between atoms: _488  and  _490
REMARK  204  A    between atoms: _490  and  _491
REMARK  205  A    between atoms: _490  and  _493
REMARK  206  A    between atoms: _493  and  _494
REMARK  207  A    between atoms: _497  and  _499
REMARK  208  A    between atoms: _499  and  _500
REMARK  209  A    between atoms: _499  and  _502
REMARK  210  A    between atoms: _502  and  _503
REMARK  211  A    between atoms: _507  and  _508
REMARK  212  A    between atoms: _513  and  _515
REMARK  213  A    between atoms: _515  and  _516
REMARK  214  A    between atoms: _515  and  _518
REMARK  215  A    between atoms: _521  and  _523
REMARK  216  A    between atoms: _523  and  _524
REMARK  217  A    between atoms: _523  and  _526
REMARK  218  A    between atoms: _526  and  _527
REMARK  219  A    between atoms: _532  and  _534
REMARK  220  A    between atoms: _534  and  _535
REMARK  221  A    between atoms: _534  and  _537
REMARK  222  A    between atoms: _537  and  _538
REMARK  223  A    between atoms: _541  and  _543
REMARK  224  A    between atoms: _543  and  _544
REMARK  225  A    between atoms: _543  and  _546
REMARK  226  A    between atoms: _546  and  _547
REMARK  227  A    between atoms: _550  and  _552
REMARK  228  A    between atoms: _552  and  _553
REMARK  229  A    between atoms: _555  and  _557
REMARK  230  A    between atoms: _557  and  _558
REMARK  231  A    between atoms: _557  and  _560
REMARK  232  A    between atoms: _560  and  _561
REMARK  233  A    between atoms: _561  and  _562
REMARK  234  A    between atoms: _562  and  _563
REMARK  235  A    between atoms: _572  and  _574
REMARK  236  A    between atoms: _574  and  _575
REMARK  237  A    between atoms: _574  and  _577
REMARK  238  A    between atoms: _577  and  _578
REMARK                            x       y       z     vdW  Elec       q    Type
REMARK                         _______ _______ _______ _____ _____    ______ ____
ROOT
ATOM      1  O   HOH     1     -23.618 -12.724 -14.094  0.00  0.00    +0.000 OA
ENDROOT
TORSDOF 0
REMARK  Name = ../refined-set-2016/3nu6/3nu6_pocket.pdb
REMARK  238 active torsions:
REMARK  status: ('A' for Active; 'I' for Inactive)
REMARK    1  A    between atoms: _1  and  _3
REMARK    2  A    between atoms: _3  and  _4
REMARK    3  A    between atoms: _3  and  _6
REMARK    4  A    between atoms: _6  and  _7
REMARK    5  A    between atoms: _7  and  _8
REMARK    6  A    between atoms: _8  and  _9
REMARK    7  A    between atoms: _18  and  _20
REMARK    8  A    between atoms: _20  and  _21
REMARK    9  A    between atoms: _20  and  _23
REMARK   10  A    between atoms: _23  and  _24
REMARK   11  A    between atoms: _27  and  _29
REMARK   12  A    between atoms: _29  and  _30
REMARK   13  A    between atoms: _29  and  _32
REMARK   14  A    between atoms: _32  and  _33
REMARK   15  A    between atoms: _36  and  _38
REMARK   16  A    between atoms: _38  and  _39
REMARK   17  A    between atoms: _38  and  _41
REMARK   18  A    between atoms: _41  and  _42
REMARK   19  A    between atoms: _45  and  _47
REMARK   20  A    between atoms: _47  and  _48
REMARK   21  A    between atoms: _47  and  _50
REMARK   22  A    between atoms: _50  and  _51
REMARK   23  A    between atoms: _54  and  _56
REMARK   24  A    between atoms: _56  and  _57
REMARK   25  A    between atoms: _59  and  _61
REMARK   26  A    between atoms: _61  and  _62
REMARK   27  A    between atoms: _65  and  _67
REMARK   28  A    between atoms: _67  and  _68
REMARK   29  A    between atoms: _67  and  _70
REMARK   30  A    between atoms: _70  and  _71
REMARK   31  A    between atoms: _74  and  _76
REMARK   32  A    between atoms: _76  and  _77
REMARK   33  A    between atoms: _76  and  _79
REMARK   34  A    between atoms: _79  and  _80
REMARK   35  A    between atoms: _83  and  _85
REMARK   36  A    between atoms: _85  and  _86
REMARK   37  A    between atoms: _85  and  _88
REMARK   38  A    between atoms: _88  and  _89
REMARK   39  A    between atoms: _92  and  _94
REMARK   40  A    between atoms: _94  and  _95
REMARK   41  A    between atoms: _94  and  _97
REMARK   42  A    between atoms: _100  and  _102
REMARK   43  A    between atoms: _102  and  _103
REMARK   44  A    between atoms: _102  and  _105
REMARK   45  A    between atoms: _106  and  _107
REMARK   46  A    between atoms: _107  and  _108
REMARK   47  A    between atoms: _108  and  _109
REMARK   48  A    between atoms: _113  and  _115
REMARK   49  A    between atoms: _115  and  _116
REMARK   50  A    between atoms: _115  and  _118
REMARK   51  A    between atoms: _118  and  _119
REMARK   52  A    between atoms: _119  and  _120
REMARK   53  A    between atoms: _122  and  _124
REMARK   54  A    between atoms: _124  and  _125
REMARK   55  A    between atoms: _124  and  _127
REMARK   56  A    between atoms: _127  and  _128
REMARK   57  A    between atoms: _131  and  _133
REMARK   58  A    between atoms: _133  and  _134
REMARK   59  A    between atoms: _136  and  _138
REMARK   60  A    between atoms: _138  and  _139
REMARK   61  A    between atoms: _141  and  _143
REMARK   62  A    between atoms: _143  and  _144
REMARK   63  A    between atoms: _143  and  _146
REMARK   64  A    between atoms: _146  and  _147
REMARK   65  A    between atoms: _150  and  _152
REMARK   66  A    between atoms: _152  and  _153
REMARK   67  A    between atoms: _155  and  _157
REMARK   68  A    between atoms: _157  and  _158
REMARK   69  A    between atoms: _160  and  _162
REMARK   70  A    between atoms: _162  and  _163
REMARK   71  A    between atoms: _162  and  _165
REMARK   72  A    between atoms: _165  and  _166
REMARK   73  A    between atoms: _172  and  _174
REMARK   74  A    between atoms: _174  and  _175
REMARK   75  A    between atoms: _174  and  _177
REMARK   76  A    between atoms: _177  and  _178
REMARK   77  A    between atoms: _178  and  _179
REMARK   78  A    between atoms: _181  and  _183
REMARK   79  A    between atoms: _183  and  _184
REMARK   80  A    between atoms: _183  and  _186
REMARK   81  A    between atoms: _189  and  _191
REMARK   82  A    between atoms: _191  and  _192
REMARK   83  A    between atoms: _191  and  _194
REMARK   84  A    between atoms: _194  and  _195
REMARK   85  A    between atoms: _199  and  _200
REMARK   86  A    between atoms: _205  and  _207
REMARK   87  A    between atoms: _207  and  _208
REMARK   88  A    between atoms: _207  and  _210
REMARK   89  A    between atoms: _210  and  _211
REMARK   90  A    between atoms: _215  and  _216
REMARK   91  A    between atoms: _221  and  _223
REMARK   92  A    between atoms: _223  and  _224
REMARK   93  A    between atoms: _223  and  _226
REMARK   94  A    between atoms: _229  and  _231
REMARK   95  A    between atoms: _231  and  _232
REMARK   96  A    between atoms: _231  and  _234
REMARK   97  A    between atoms: _234  and  _235
REMARK   98  A    between atoms: _240  and  _242
REMARK   99  A    between atoms: _242  and  _243
REMARK  100  A    between atoms: _242  and  _245
REMARK  101  A    between atoms: _245  and  _246
REMARK  102  A    between atoms: _249  and  _251
REMARK  103  A    between atoms: _251  and  _252
REMARK  104  A    between atoms: _251  and  _254
REMARK  105  A    between atoms: _254  and  _255
REMARK  106  A    between atoms: _258  and  _260
REMARK  107  A    between atoms: _260  and  _261
REMARK  108  A    between atoms: _263  and  _265
REMARK  109  A    between atoms: _265  and  _266
REMARK  110  A    between atoms: _265  and  _268
REMARK  111  A    between atoms: _268  and  _269
REMARK  112  A    between atoms: _269  and  _270
REMARK  113  A    between atoms: _270  and  _271
REMARK  114  A    between atoms: _280  and  _282
REMARK  115  A    between atoms: _282  and  _283
REMARK  116  A    between atoms: _282  and  _285
REMARK  117  A    between atoms: _285  and  _286
REMARK  118  A    between atoms: _291  and  _293
REMARK  119  A    between atoms: _293  and  _294
REMARK  120  A    between atoms: _293  and  _296
REMARK  121  A    between atoms: _296  and  _297
REMARK  122  A    between atoms: _297  and  _298
REMARK  123  A    between atoms: _298  and  _299
REMARK  124  A    between atoms: _308  and  _310
REMARK  125  A    between atoms: _310  and  _311
REMARK  126  A    between atoms: _310  and  _313
REMARK  127  A    between atoms: _313  and  _314
REMARK  128  A    between atoms: _317  and  _319
REMARK  129  A    between atoms: _319  and  _320
REMARK  130  A    between atoms: _319  and  _322
REMARK  131  A    between atoms: _322  and  _323
REMARK  132  A    between atoms: _326  and  _328
REMARK  133  A    between atoms: _328  and  _329
REMARK  134  A    between atoms: _328  and  _331
REMARK  135  A    between atoms: _331  and  _332
REMARK  136  A    between atoms: _335  and  _337
REMARK  137  A    between atoms: _337  and  _338
REMARK  138  A    between atoms: _337  and  _340
REMARK  139  A    between atoms: _340  and  _341
REMARK  140  A    between atoms: _344  and  _346
REMARK  141  A    between atoms: _346  and  _347
REMARK  142  A    between atoms: _349  and  _351
REMARK  143  A    between atoms: _351  and  _352
REMARK  144  A    between atoms: _355  and  _357
REMARK  145  A    between atoms: _357  and  _358
REMARK  146  A    between atoms: _357  and  _360
REMARK  147  A    between atoms: _360  and  _361
REMARK  148  A    between atoms: _364  and  _366
REMARK  149  A    between atoms: _366  and  _367
REMARK  150  A    between atoms: _366  and  _369
REMARK  151  A    between atoms: _369  and  _370
REMARK  152  A    between atoms: _373  and  _375
REMARK  153  A    between atoms: _375  and  _376
REMARK  154  A    between atoms: _375  and  _378
REMARK  155  A    between atoms: _378  and  _379
REMARK  156  A    between atoms: _382  and  _384
REMARK  157  A    between atoms: _384  and  _385
REMARK  158  A    between atoms: _384  and  _387
REMARK  159  A    between atoms: _390  and  _392
REMARK  160  A    between atoms: _392  and  _393
REMARK  161  A    between atoms: _392  and  _395
REMARK  162  A    between atoms: _395  and  _396
REMARK  163  A    between atoms: _399  and  _401
REMARK  164  A    between atoms: _401  and  _402
REMARK  165  A    between atoms: _401  and  _404
REMARK  166  A    between atoms: _404  and  _405
REMARK  167  A    between atoms: _405  and  _406
REMARK  168  A    between atoms: _406  and  _407
REMARK  169  A    between atoms: _407  and  _408
REMARK  170  A    between atoms: _412  and  _414
REMARK  171  A    between atoms: _414  and  _415
REMARK  172  A    between atoms: _414  and  _417
REMARK  173  A    between atoms: _417  and  _418
REMARK  174  A    between atoms: _418  and  _419
REMARK  175  A    between atoms: _421  and  _423
REMARK  176  A    between atoms: _423  and  _424
REMARK  177  A    between atoms: _423  and  _426
REMARK  178  A    between atoms: _426  and  _427
REMARK  179  A    between atoms: _430  and  _432
REMARK  180  A    between atoms: _432  and  _433
REMARK  181  A    between atoms: _435  and  _437
REMARK  182  A    between atoms: _437  and  _438
REMARK  183  A    between atoms: _440  and  _442
REMARK  184  A    between atoms: _442  and  _443
REMARK  185  A    between atoms: _442  and  _445
REMARK  186  A    between atoms: _445  and  _446
REMARK  187  A    between atoms: _449  and  _451
REMARK  188  A    between atoms: _451  and  _452
REMARK  189  A    between atoms: _454  and  _456
REMARK  190  A    between atoms: _456  and  _457
REMARK  191  A    between atoms: _459  and  _461
REMARK  192  A    between atoms: _461  and  _462
REMARK  193  A    between atoms: _461  and  _464
REMARK  194  A    between atoms: _464  and  _465
REMARK  195  A    between atoms: _471  and  _473
REMARK  196  A    between atoms: _473  and  _474
REMARK  197  A    between atoms: _473  and  _476
REMARK  198  A    between atoms: _476  and  _477
REMARK  199  A    between atoms: _477  and  _478
REMARK  200  A    between atoms: _480  and  _482
REMARK  201  A    between atoms: _482  and  _483
REMARK  202  A    between atoms: _482  and  _485
REMARK  203  A    between atoms: _488  and  _490
REMARK  204  A    between atoms: _490  and  _491
REMARK  205  A    between atoms: _490  and  _493
REMARK  206  A    between atoms: _493  and  _494
REMARK  207  A    between atoms: _497  and  _499
REMARK  208  A    between atoms: _499  and  _500
REMARK  209  A    between atoms: _499  and  _502
REMARK  210  A    between atoms: _502  and  _503
REMARK  211  A    between atoms: _507  and  _508
REMARK  212  A    between atoms: _513  and  _515
REMARK  213  A    between atoms: _515  and  _516
REMARK  214  A    between atoms: _515  and  _518
REMARK  215  A    between atoms: _521  and  _523
REMARK  216  A    between atoms: _523  and  _524
REMARK  217  A    between atoms: _523  and  _526
REMARK  218  A    between atoms: _526  and  _527
REMARK  219  A    between atoms: _532  and  _534
REMARK  220  A    between atoms: _534  and  _535
REMARK  221  A    between atoms: _534  and  _537
REMARK  222  A    between atoms: _537  and  _538
REMARK  223  A    between atoms: _541  and  _543
REMARK  224  A    between atoms: _543  and  _544
REMARK  225  A    between atoms: _543  and  _546
REMARK  226  A    between atoms: _546  and  _547
REMARK  227  A    between atoms: _550  and  _552
REMARK  228  A    between atoms: _552  and  _553
REMARK  229  A    between atoms: _555  and  _557
REMARK  230  A    between atoms: _557  and  _558
REMARK  231  A    between atoms: _557  and  _560
REMARK  232  A    between atoms: _560  and  _561
REMARK  233  A    between atoms: _561  and  _562
REMARK  234  A    between atoms: _562  and  _563
REMARK  235  A    between atoms: _572  and  _574
REMARK  236  A    between atoms: _574  and  _575
REMARK  237  A    between atoms: _574  and  _577
REMARK  238  A    between atoms: _577  and  _578
REMARK                            x       y       z     vdW  Elec       q    Type
REMARK                         _______ _______ _______ _____ _____    ______ ____
ROOT
ATOM      1  O   HOH     1     -22.592 -17.038 -18.240  0.00  0.00    +0.000 OA
ENDROOT
TORSDOF 0
REMARK  Name = ../refined-set-2016/3nu6/3nu6_pocket.pdb
REMARK  238 active torsions:
REMARK  status: ('A' for Active; 'I' for Inactive)
REMARK    1  A    between atoms: _1  and  _3
REMARK    2  A    between atoms: _3  and  _4
REMARK    3  A    between atoms: _3  and  _6
REMARK    4  A    between atoms: _6  and  _7
REMARK    5  A    between atoms: _7  and  _8
REMARK    6  A    between atoms: _8  and  _9
REMARK    7  A    between atoms: _18  and  _20
REMARK    8  A    between atoms: _20  and  _21
REMARK    9  A    between atoms: _20  and  _23
REMARK   10  A    between atoms: _23  and  _24
REMARK   11  A    between atoms: _27  and  _29
REMARK   12  A    between atoms: _29  and  _30
REMARK   13  A    between atoms: _29  and  _32
REMARK   14  A    between atoms: _32  and  _33
REMARK   15  A    between atoms: _36  and  _38
REMARK   16  A    between atoms: _38  and  _39
REMARK   17  A    between atoms: _38  and  _41
REMARK   18  A    between atoms: _41  and  _42
REMARK   19  A    between atoms: _45  and  _47
REMARK   20  A    between atoms: _47  and  _48
REMARK   21  A    between atoms: _47  and  _50
REMARK   22  A    between atoms: _50  and  _51
REMARK   23  A    between atoms: _54  and  _56
REMARK   24  A    between atoms: _56  and  _57
REMARK   25  A    between atoms: _59  and  _61
REMARK   26  A    between atoms: _61  and  _62
REMARK   27  A    between atoms: _65  and  _67
REMARK   28  A    between atoms: _67  and  _68
REMARK   29  A    between atoms: _67  and  _70
REMARK   30  A    between atoms: _70  and  _71
REMARK   31  A    between atoms: _74  and  _76
REMARK   32  A    between atoms: _76  and  _77
REMARK   33  A    between atoms: _76  and  _79
REMARK   34  A    between atoms: _79  and  _80
REMARK   35  A    between atoms: _83  and  _85
REMARK   36  A    between atoms: _85  and  _86
REMARK   37  A    between atoms: _85  and  _88
REMARK   38  A    between atoms: _88  and  _89
REMARK   39  A    between atoms: _92  and  _94
REMARK   40  A    between atoms: _94  and  _95
REMARK   41  A    between atoms: _94  and  _97
REMARK   42  A    between atoms: _100  and  _102
REMARK   43  A    between atoms: _102  and  _103
REMARK   44  A    between atoms: _102  and  _105
REMARK   45  A    between atoms: _106  and  _107
REMARK   46  A    between atoms: _107  and  _108
REMARK   47  A    between atoms: _108  and  _109
REMARK   48  A    between atoms: _113  and  _115
REMARK   49  A    between atoms: _115  and  _116
REMARK   50  A    between atoms: _115  and  _118
REMARK   51  A    between atoms: _118  and  _119
REMARK   52  A    between atoms: _119  and  _120
REMARK   53  A    between atoms: _122  and  _124
REMARK   54  A    between atoms: _124  and  _125
REMARK   55  A    between atoms: _124  and  _127
REMARK   56  A    between atoms: _127  and  _128
REMARK   57  A    between atoms: _131  and  _133
REMARK   58  A    between atoms: _133  and  _134
REMARK   59  A    between atoms: _136  and  _138
REMARK   60  A    between atoms: _138  and  _139
REMARK   61  A    between atoms: _141  and  _143
REMARK   62  A    between atoms: _143  and  _144
REMARK   63  A    between atoms: _143  and  _146
REMARK   64  A    between atoms: _146  and  _147
REMARK   65  A    between atoms: _150  and  _152
REMARK   66  A    between atoms: _152  and  _153
REMARK   67  A    between atoms: _155  and  _157
REMARK   68  A    between atoms: _157  and  _158
REMARK   69  A    between atoms: _160  and  _162
REMARK   70  A    between atoms: _162  and  _163
REMARK   71  A    between atoms: _162  and  _165
REMARK   72  A    between atoms: _165  and  _166
REMARK   73  A    between atoms: _172  and  _174
REMARK   74  A    between atoms: _174  and  _175
REMARK   75  A    between atoms: _174  and  _177
REMARK   76  A    between atoms: _177  and  _178
REMARK   77  A    between atoms: _178  and  _179
REMARK   78  A    between atoms: _181  and  _183
REMARK   79  A    between atoms: _183  and  _184
REMARK   80  A    between atoms: _183  and  _186
REMARK   81  A    between atoms: _189  and  _191
REMARK   82  A    between atoms: _191  and  _192
REMARK   83  A    between atoms: _191  and  _194
REMARK   84  A    between atoms: _194  and  _195
REMARK   85  A    between atoms: _199  and  _200
REMARK   86  A    between atoms: _205  and  _207
REMARK   87  A    between atoms: _207  and  _208
REMARK   88  A    between atoms: _207  and  _210
REMARK   89  A    between atoms: _210  and  _211
REMARK   90  A    between atoms: _215  and  _216
REMARK   91  A    between atoms: _221  and  _223
REMARK   92  A    between atoms: _223  and  _224
REMARK   93  A    between atoms: _223  and  _226
REMARK   94  A    between atoms: _229  and  _231
REMARK   95  A    between atoms: _231  and  _232
REMARK   96  A    between atoms: _231  and  _234
REMARK   97  A    between atoms: _234  and  _235
REMARK   98  A    between atoms: _240  and  _242
REMARK   99  A    between atoms: _242  and  _243
REMARK  100  A    between atoms: _242  and  _245
REMARK  101  A    between atoms: _245  and  _246
REMARK  102  A    between atoms: _249  and  _251
REMARK  103  A    between atoms: _251  and  _252
REMARK  104  A    between atoms: _251  and  _254
REMARK  105  A    between atoms: _254  and  _255
REMARK  106  A    between atoms: _258  and  _260
REMARK  107  A    between atoms: _260  and  _261
REMARK  108  A    between atoms: _263  and  _265
REMARK  109  A    between atoms: _265  and  _266
REMARK  110  A    between atoms: _265  and  _268
REMARK  111  A    between atoms: _268  and  _269
REMARK  112  A    between atoms: _269  and  _270
REMARK  113  A    between atoms: _270  and  _271
REMARK  114  A    between atoms: _280  and  _282
REMARK  115  A    between atoms: _282  and  _283
REMARK  116  A    between atoms: _282  and  _285
REMARK  117  A    between atoms: _285  and  _286
REMARK  118  A    between atoms: _291  and  _293
REMARK  119  A    between atoms: _293  and  _294
REMARK  120  A    between atoms: _293  and  _296
REMARK  121  A    between atoms: _296  and  _297
REMARK  122  A    between atoms: _297  and  _298
REMARK  123  A    between atoms: _298  and  _299
REMARK  124  A    between atoms: _308  and  _310
REMARK  125  A    between atoms: _310  and  _311
REMARK  126  A    between atoms: _310  and  _313
REMARK  127  A    between atoms: _313  and  _314
REMARK  128  A    between atoms: _317  and  _319
REMARK  129  A    between atoms: _319  and  _320
REMARK  130  A    between atoms: _319  and  _322
REMARK  131  A    between atoms: _322  and  _323
REMARK  132  A    between atoms: _326  and  _328
REMARK  133  A    between atoms: _328  and  _329
REMARK  134  A    between atoms: _328  and  _331
REMARK  135  A    between atoms: _331  and  _332
REMARK  136  A    between atoms: _335  and  _337
REMARK  137  A    between atoms: _337  and  _338
REMARK  138  A    between atoms: _337  and  _340
REMARK  139  A    between atoms: _340  and  _341
REMARK  140  A    between atoms: _344  and  _346
REMARK  141  A    between atoms: _346  and  _347
REMARK  142  A    between atoms: _349  and  _351
REMARK  143  A    between atoms: _351  and  _352
REMARK  144  A    between atoms: _355  and  _357
REMARK  145  A    between atoms: _357  and  _358
REMARK  146  A    between atoms: _357  and  _360
REMARK  147  A    between atoms: _360  and  _361
REMARK  148  A    between atoms: _364  and  _366
REMARK  149  A    between atoms: _366  and  _367
REMARK  150  A    between atoms: _366  and  _369
REMARK  151  A    between atoms: _369  and  _370
REMARK  152  A    between atoms: _373  and  _375
REMARK  153  A    between atoms: _375  and  _376
REMARK  154  A    between atoms: _375  and  _378
REMARK  155  A    between atoms: _378  and  _379
REMARK  156  A    between atoms: _382  and  _384
REMARK  157  A    between atoms: _384  and  _385
REMARK  158  A    between atoms: _384  and  _387
REMARK  159  A    between atoms: _390  and  _392
REMARK  160  A    between atoms: _392  and  _393
REMARK  161  A    between atoms: _392  and  _395
REMARK  162  A    between atoms: _395  and  _396
REMARK  163  A    between atoms: _399  and  _401
REMARK  164  A    between atoms: _401  and  _402
REMARK  165  A    between atoms: _401  and  _404
REMARK  166  A    between atoms: _404  and  _405
REMARK  167  A    between atoms: _405  and  _406
REMARK  168  A    between atoms: _406  and  _407
REMARK  169  A    between atoms: _407  and  _408
REMARK  170  A    between atoms: _412  and  _414
REMARK  171  A    between atoms: _414  and  _415
REMARK  172  A    between atoms: _414  and  _417
REMARK  173  A    between atoms: _417  and  _418
REMARK  174  A    between atoms: _418  and  _419
REMARK  175  A    between atoms: _421  and  _423
REMARK  176  A    between atoms: _423  and  _424
REMARK  177  A    between atoms: _423  and  _426
REMARK  178  A    between atoms: _426  and  _427
REMARK  179  A    between atoms: _430  and  _432
REMARK  180  A    between atoms: _432  and  _433
REMARK  181  A    between atoms: _435  and  _437
REMARK  182  A    between atoms: _437  and  _438
REMARK  183  A    between atoms: _440  and  _442
REMARK  184  A    between atoms: _442  and  _443
REMARK  185  A    between atoms: _442  and  _445
REMARK  186  A    between atoms: _445  and  _446
REMARK  187  A    between atoms: _449  and  _451
REMARK  188  A    between atoms: _451  and  _452
REMARK  189  A    between atoms: _454  and  _456
REMARK  190  A    between atoms: _456  and  _457
REMARK  191  A    between atoms: _459  and  _461
REMARK  192  A    between atoms: _461  and  _462
REMARK  193  A    between atoms: _461  and  _464
REMARK  194  A    between atoms: _464  and  _465
REMARK  195  A    between atoms: _471  and  _473
REMARK  196  A    between atoms: _473  and  _474
REMARK  197  A    between atoms: _473  and  _476
REMARK  198  A    between atoms: _476  and  _477
REMARK  199  A    between atoms: _477  and  _478
REMARK  200  A    between atoms: _480  and  _482
REMARK  201  A    between atoms: _482  and  _483
REMARK  202  A    between atoms: _482  and  _485
REMARK  203  A    between atoms: _488  and  _490
REMARK  204  A    between atoms: _490  and  _491
REMARK  205  A    between atoms: _490  and  _493
REMARK  206  A    between atoms: _493  and  _494
REMARK  207  A    between atoms: _497  and  _499
REMARK  208  A    between atoms: _499  and  _500
REMARK  209  A    between atoms: _499  and  _502
REMARK  210  A    between atoms: _502  and  _503
REMARK  211  A    between atoms: _507  and  _508
REMARK  212  A    between atoms: _513  and  _515
REMARK  213  A    between atoms: _515  and  _516
REMARK  214  A    between atoms: _515  and  _518
REMARK  215  A    between atoms: _521  and  _523
REMARK  216  A    between atoms: _523  and  _524
REMARK  217  A    between atoms: _523  and  _526
REMARK  218  A    between atoms: _526  and  _527
REMARK  219  A    between atoms: _532  and  _534
REMARK  220  A    between atoms: _534  and  _535
REMARK  221  A    between atoms: _534  and  _537
REMARK  222  A    between atoms: _537  and  _538
REMARK  223  A    between atoms: _541  and  _543
REMARK  224  A    between atoms: _543  and  _544
REMARK  225  A    between atoms: _543  and  _546
REMARK  226  A    between atoms: _546  and  _547
REMARK  227  A    between atoms: _550  and  _552
REMARK  228  A    between atoms: _552  and  _553
REMARK  229  A    between atoms: _555  and  _557
REMARK  230  A    between atoms: _557  and  _558
REMARK  231  A    between atoms: _557  and  _560
REMARK  232  A    between atoms: _560  and  _561
REMARK  233  A    between atoms: _561  and  _562
REMARK  234  A    between atoms: _562  and  _563
REMARK  235  A    between atoms: _572  and  _574
REMARK  236  A    between atoms: _574  and  _575
REMARK  237  A    between atoms: _574  and  _577
REMARK  238  A    between atoms: _577  and  _578
REMARK                            x       y       z     vdW  Elec       q    Type
REMARK                         _______ _______ _______ _____ _____    ______ ____
ROOT
ATOM      1  O   HOH     1     -20.643 -14.994 -18.419  0.00  0.00    +0.000 OA
ENDROOT
TORSDOF 0
REMARK  Name = ../refined-set-2016/3nu6/3nu6_pocket.pdb
REMARK  238 active torsions:
REMARK  status: ('A' for Active; 'I' for Inactive)
REMARK    1  A    between atoms: _1  and  _3
REMARK    2  A    between atoms: _3  and  _4
REMARK    3  A    between atoms: _3  and  _6
REMARK    4  A    between atoms: _6  and  _7
REMARK    5  A    between atoms: _7  and  _8
REMARK    6  A    between atoms: _8  and  _9
REMARK    7  A    between atoms: _18  and  _20
REMARK    8  A    between atoms: _20  and  _21
REMARK    9  A    between atoms: _20  and  _23
REMARK   10  A    between atoms: _23  and  _24
REMARK   11  A    between atoms: _27  and  _29
REMARK   12  A    between atoms: _29  and  _30
REMARK   13  A    between atoms: _29  and  _32
REMARK   14  A    between atoms: _32  and  _33
REMARK   15  A    between atoms: _36  and  _38
REMARK   16  A    between atoms: _38  and  _39
REMARK   17  A    between atoms: _38  and  _41
REMARK   18  A    between atoms: _41  and  _42
REMARK   19  A    between atoms: _45  and  _47
REMARK   20  A    between atoms: _47  and  _48
REMARK   21  A    between atoms: _47  and  _50
REMARK   22  A    between atoms: _50  and  _51
REMARK   23  A    between atoms: _54  and  _56
REMARK   24  A    between atoms: _56  and  _57
REMARK   25  A    between atoms: _59  and  _61
REMARK   26  A    between atoms: _61  and  _62
REMARK   27  A    between atoms: _65  and  _67
REMARK   28  A    between atoms: _67  and  _68
REMARK   29  A    between atoms: _67  and  _70
REMARK   30  A    between atoms: _70  and  _71
REMARK   31  A    between atoms: _74  and  _76
REMARK   32  A    between atoms: _76  and  _77
REMARK   33  A    between atoms: _76  and  _79
REMARK   34  A    between atoms: _79  and  _80
REMARK   35  A    between atoms: _83  and  _85
REMARK   36  A    between atoms: _85  and  _86
REMARK   37  A    between atoms: _85  and  _88
REMARK   38  A    between atoms: _88  and  _89
REMARK   39  A    between atoms: _92  and  _94
REMARK   40  A    between atoms: _94  and  _95
REMARK   41  A    between atoms: _94  and  _97
REMARK   42  A    between atoms: _100  and  _102
REMARK   43  A    between atoms: _102  and  _103
REMARK   44  A    between atoms: _102  and  _105
REMARK   45  A    between atoms: _106  and  _107
REMARK   46  A    between atoms: _107  and  _108
REMARK   47  A    between atoms: _108  and  _109
REMARK   48  A    between atoms: _113  and  _115
REMARK   49  A    between atoms: _115  and  _116
REMARK   50  A    between atoms: _115  and  _118
REMARK   51  A    between atoms: _118  and  _119
REMARK   52  A    between atoms: _119  and  _120
REMARK   53  A    between atoms: _122  and  _124
REMARK   54  A    between atoms: _124  and  _125
REMARK   55  A    between atoms: _124  and  _127
REMARK   56  A    between atoms: _127  and  _128
REMARK   57  A    between atoms: _131  and  _133
REMARK   58  A    between atoms: _133  and  _134
REMARK   59  A    between atoms: _136  and  _138
REMARK   60  A    between atoms: _138  and  _139
REMARK   61  A    between atoms: _141  and  _143
REMARK   62  A    between atoms: _143  and  _144
REMARK   63  A    between atoms: _143  and  _146
REMARK   64  A    between atoms: _146  and  _147
REMARK   65  A    between atoms: _150  and  _152
REMARK   66  A    between atoms: _152  and  _153
REMARK   67  A    between atoms: _155  and  _157
REMARK   68  A    between atoms: _157  and  _158
REMARK   69  A    between atoms: _160  and  _162
REMARK   70  A    between atoms: _162  and  _163
REMARK   71  A    between atoms: _162  and  _165
REMARK   72  A    between atoms: _165  and  _166
REMARK   73  A    between atoms: _172  and  _174
REMARK   74  A    between atoms: _174  and  _175
REMARK   75  A    between atoms: _174  and  _177
REMARK   76  A    between atoms: _177  and  _178
REMARK   77  A    between atoms: _178  and  _179
REMARK   78  A    between atoms: _181  and  _183
REMARK   79  A    between atoms: _183  and  _184
REMARK   80  A    between atoms: _183  and  _186
REMARK   81  A    between atoms: _189  and  _191
REMARK   82  A    between atoms: _191  and  _192
REMARK   83  A    between atoms: _191  and  _194
REMARK   84  A    between atoms: _194  and  _195
REMARK   85  A    between atoms: _199  and  _200
REMARK   86  A    between atoms: _205  and  _207
REMARK   87  A    between atoms: _207  and  _208
REMARK   88  A    between atoms: _207  and  _210
REMARK   89  A    between atoms: _210  and  _211
REMARK   90  A    between atoms: _215  and  _216
REMARK   91  A    between atoms: _221  and  _223
REMARK   92  A    between atoms: _223  and  _224
REMARK   93  A    between atoms: _223  and  _226
REMARK   94  A    between atoms: _229  and  _231
REMARK   95  A    between atoms: _231  and  _232
REMARK   96  A    between atoms: _231  and  _234
REMARK   97  A    between atoms: _234  and  _235
REMARK   98  A    between atoms: _240  and  _242
REMARK   99  A    between atoms: _242  and  _243
REMARK  100  A    between atoms: _242  and  _245
REMARK  101  A    between atoms: _245  and  _246
REMARK  102  A    between atoms: _249  and  _251
REMARK  103  A    between atoms: _251  and  _252
REMARK  104  A    between atoms: _251  and  _254
REMARK  105  A    between atoms: _254  and  _255
REMARK  106  A    between atoms: _258  and  _260
REMARK  107  A    between atoms: _260  and  _261
REMARK  108  A    between atoms: _263  and  _265
REMARK  109  A    between atoms: _265  and  _266
REMARK  110  A    between atoms: _265  and  _268
REMARK  111  A    between atoms: _268  and  _269
REMARK  112  A    between atoms: _269  and  _270
REMARK  113  A    between atoms: _270  and  _271
REMARK  114  A    between atoms: _280  and  _282
REMARK  115  A    between atoms: _282  and  _283
REMARK  116  A    between atoms: _282  and  _285
REMARK  117  A    between atoms: _285  and  _286
REMARK  118  A    between atoms: _291  and  _293
REMARK  119  A    between atoms: _293  and  _294
REMARK  120  A    between atoms: _293  and  _296
REMARK  121  A    between atoms: _296  and  _297
REMARK  122  A    between atoms: _297  and  _298
REMARK  123  A    between atoms: _298  and  _299
REMARK  124  A    between atoms: _308  and  _310
REMARK  125  A    between atoms: _310  and  _311
REMARK  126  A    between atoms: _310  and  _313
REMARK  127  A    between atoms: _313  and  _314
REMARK  128  A    between atoms: _317  and  _319
REMARK  129  A    between atoms: _319  and  _320
REMARK  130  A    between atoms: _319  and  _322
REMARK  131  A    between atoms: _322  and  _323
REMARK  132  A    between atoms: _326  and  _328
REMARK  133  A    between atoms: _328  and  _329
REMARK  134  A    between atoms: _328  and  _331
REMARK  135  A    between atoms: _331  and  _332
REMARK  136  A    between atoms: _335  and  _337
REMARK  137  A    between atoms: _337  and  _338
REMARK  138  A    between atoms: _337  and  _340
REMARK  139  A    between atoms: _340  and  _341
REMARK  140  A    between atoms: _344  and  _346
REMARK  141  A    between atoms: _346  and  _347
REMARK  142  A    between atoms: _349  and  _351
REMARK  143  A    between atoms: _351  and  _352
REMARK  144  A    between atoms: _355  and  _357
REMARK  145  A    between atoms: _357  and  _358
REMARK  146  A    between atoms: _357  and  _360
REMARK  147  A    between atoms: _360  and  _361
REMARK  148  A    between atoms: _364  and  _366
REMARK  149  A    between atoms: _366  and  _367
REMARK  150  A    between atoms: _366  and  _369
REMARK  151  A    between atoms: _369  and  _370
REMARK  152  A    between atoms: _373  and  _375
REMARK  153  A    between atoms: _375  and  _376
REMARK  154  A    between atoms: _375  and  _378
REMARK  155  A    between atoms: _378  and  _379
REMARK  156  A    between atoms: _382  and  _384
REMARK  157  A    between atoms: _384  and  _385
REMARK  158  A    between atoms: _384  and  _387
REMARK  159  A    between atoms: _390  and  _392
REMARK  160  A    between atoms: _392  and  _393
REMARK  161  A    between atoms: _392  and  _395
REMARK  162  A    between atoms: _395  and  _396
REMARK  163  A    between atoms: _399  and  _401
REMARK  164  A    between atoms: _401  and  _402
REMARK  165  A    between atoms: _401  and  _404
REMARK  166  A    between atoms: _404  and  _405
REMARK  167  A    between atoms: _405  and  _406
REMARK  168  A    between atoms: _406  and  _407
REMARK  169  A    between atoms: _407  and  _408
REMARK  170  A    between atoms: _412  and  _414
REMARK  171  A    between atoms: _414  and  _415
REMARK  172  A    between atoms: _414  and  _417
REMARK  173  A    between atoms: _417  and  _418
REMARK  174  A    between atoms: _418  and  _419
REMARK  175  A    between atoms: _421  and  _423
REMARK  176  A    between atoms: _423  and  _424
REMARK  177  A    between atoms: _423  and  _426
REMARK  178  A    between atoms: _426  and  _427
REMARK  179  A    between atoms: _430  and  _432
REMARK  180  A    between atoms: _432  and  _433
REMARK  181  A    between atoms: _435  and  _437
REMARK  182  A    between atoms: _437  and  _438
REMARK  183  A    between atoms: _440  and  _442
REMARK  184  A    between atoms: _442  and  _443
REMARK  185  A    between atoms: _442  and  _445
REMARK  186  A    between atoms: _445  and  _446
REMARK  187  A    between atoms: _449  and  _451
REMARK  188  A    between atoms: _451  and  _452
REMARK  189  A    between atoms: _454  and  _456
REMARK  190  A    between atoms: _456  and  _457
REMARK  191  A    between atoms: _459  and  _461
REMARK  192  A    between atoms: _461  and  _462
REMARK  193  A    between atoms: _461  and  _464
REMARK  194  A    between atoms: _464  and  _465
REMARK  195  A    between atoms: _471  and  _473
REMARK  196  A    between atoms: _473  and  _474
REMARK  197  A    between atoms: _473  and  _476
REMARK  198  A    between atoms: _476  and  _477
REMARK  199  A    between atoms: _477  and  _478
REMARK  200  A    between atoms: _480  and  _482
REMARK  201  A    between atoms: _482  and  _483
REMARK  202  A    between atoms: _482  and  _485
REMARK  203  A    between atoms: _488  and  _490
REMARK  204  A    between atoms: _490  and  _491
REMARK  205  A    between atoms: _490  and  _493
REMARK  206  A    between atoms: _493  and  _494
REMARK  207  A    between atoms: _497  and  _499
REMARK  208  A    between atoms: _499  and  _500
REMARK  209  A    between atoms: _499  and  _502
REMARK  210  A    between atoms: _502  and  _503
REMARK  211  A    between atoms: _507  and  _508
REMARK  212  A    between atoms: _513  and  _515
REMARK  213  A    between atoms: _515  and  _516
REMARK  214  A    between atoms: _515  and  _518
REMARK  215  A    between atoms: _521  and  _523
REMARK  216  A    between atoms: _523  and  _524
REMARK  217  A    between atoms: _523  and  _526
REMARK  218  A    between atoms: _526  and  _527
REMARK  219  A    between atoms: _532  and  _534
REMARK  220  A    between atoms: _534  and  _535
REMARK  221  A    between atoms: _534  and  _537
REMARK  222  A    between atoms: _537  and  _538
REMARK  223  A    between atoms: _541  and  _543
REMARK  224  A    between atoms: _543  and  _544
REMARK  225  A    between atoms: _543  and  _546
REMARK  226  A    between atoms: _546  and  _547
REMARK  227  A    between atoms: _550  and  _552
REMARK  228  A    between atoms: _552  and  _553
REMARK  229  A    between atoms: _555  and  _557
REMARK  230  A    between atoms: _557  and  _558
REMARK  231  A    between atoms: _557  and  _560
REMARK  232  A    between atoms: _560  and  _561
REMARK  233  A    between atoms: _561  and  _562
REMARK  234  A    between atoms: _562  and  _563
REMARK  235  A    between atoms: _572  and  _574
REMARK  236  A    between atoms: _574  and  _575
REMARK  237  A    between atoms: _574  and  _577
REMARK  238  A    between atoms: _577  and  _578
REMARK                            x       y       z     vdW  Elec       q    Type
REMARK                         _______ _______ _______ _____ _____    ______ ____
ROOT
ATOM      1  O   HOH     1      -9.952 -25.521 -13.594  0.00  0.00    +0.000 OA
ENDROOT
TORSDOF 0
REMARK  Name = ../refined-set-2016/3nu6/3nu6_pocket.pdb
REMARK  238 active torsions:
REMARK  status: ('A' for Active; 'I' for Inactive)
REMARK    1  A    between atoms: _1  and  _3
REMARK    2  A    between atoms: _3  and  _4
REMARK    3  A    between atoms: _3  and  _6
REMARK    4  A    between atoms: _6  and  _7
REMARK    5  A    between atoms: _7  and  _8
REMARK    6  A    between atoms: _8  and  _9
REMARK    7  A    between atoms: _18  and  _20
REMARK    8  A    between atoms: _20  and  _21
REMARK    9  A    between atoms: _20  and  _23
REMARK   10  A    between atoms: _23  and  _24
REMARK   11  A    between atoms: _27  and  _29
REMARK   12  A    between atoms: _29  and  _30
REMARK   13  A    between atoms: _29  and  _32
REMARK   14  A    between atoms: _32  and  _33
REMARK   15  A    between atoms: _36  and  _38
REMARK   16  A    between atoms: _38  and  _39
REMARK   17  A    between atoms: _38  and  _41
REMARK   18  A    between atoms: _41  and  _42
REMARK   19  A    between atoms: _45  and  _47
REMARK   20  A    between atoms: _47  and  _48
REMARK   21  A    between atoms: _47  and  _50
REMARK   22  A    between atoms: _50  and  _51
REMARK   23  A    between atoms: _54  and  _56
REMARK   24  A    between atoms: _56  and  _57
REMARK   25  A    between atoms: _59  and  _61
REMARK   26  A    between atoms: _61  and  _62
REMARK   27  A    between atoms: _65  and  _67
REMARK   28  A    between atoms: _67  and  _68
REMARK   29  A    between atoms: _67  and  _70
REMARK   30  A    between atoms: _70  and  _71
REMARK   31  A    between atoms: _74  and  _76
REMARK   32  A    between atoms: _76  and  _77
REMARK   33  A    between atoms: _76  and  _79
REMARK   34  A    between atoms: _79  and  _80
REMARK   35  A    between atoms: _83  and  _85
REMARK   36  A    between atoms: _85  and  _86
REMARK   37  A    between atoms: _85  and  _88
REMARK   38  A    between atoms: _88  and  _89
REMARK   39  A    between atoms: _92  and  _94
REMARK   40  A    between atoms: _94  and  _95
REMARK   41  A    between atoms: _94  and  _97
REMARK   42  A    between atoms: _100  and  _102
REMARK   43  A    between atoms: _102  and  _103
REMARK   44  A    between atoms: _102  and  _105
REMARK   45  A    between atoms: _106  and  _107
REMARK   46  A    between atoms: _107  and  _108
REMARK   47  A    between atoms: _108  and  _109
REMARK   48  A    between atoms: _113  and  _115
REMARK   49  A    between atoms: _115  and  _116
REMARK   50  A    between atoms: _115  and  _118
REMARK   51  A    between atoms: _118  and  _119
REMARK   52  A    between atoms: _119  and  _120
REMARK   53  A    between atoms: _122  and  _124
REMARK   54  A    between atoms: _124  and  _125
REMARK   55  A    between atoms: _124  and  _127
REMARK   56  A    between atoms: _127  and  _128
REMARK   57  A    between atoms: _131  and  _133
REMARK   58  A    between atoms: _133  and  _134
REMARK   59  A    between atoms: _136  and  _138
REMARK   60  A    between atoms: _138  and  _139
REMARK   61  A    between atoms: _141  and  _143
REMARK   62  A    between atoms: _143  and  _144
REMARK   63  A    between atoms: _143  and  _146
REMARK   64  A    between atoms: _146  and  _147
REMARK   65  A    between atoms: _150  and  _152
REMARK   66  A    between atoms: _152  and  _153
REMARK   67  A    between atoms: _155  and  _157
REMARK   68  A    between atoms: _157  and  _158
REMARK   69  A    between atoms: _160  and  _162
REMARK   70  A    between atoms: _162  and  _163
REMARK   71  A    between atoms: _162  and  _165
REMARK   72  A    between atoms: _165  and  _166
REMARK   73  A    between atoms: _172  and  _174
REMARK   74  A    between atoms: _174  and  _175
REMARK   75  A    between atoms: _174  and  _177
REMARK   76  A    between atoms: _177  and  _178
REMARK   77  A    between atoms: _178  and  _179
REMARK   78  A    between atoms: _181  and  _183
REMARK   79  A    between atoms: _183  and  _184
REMARK   80  A    between atoms: _183  and  _186
REMARK   81  A    between atoms: _189  and  _191
REMARK   82  A    between atoms: _191  and  _192
REMARK   83  A    between atoms: _191  and  _194
REMARK   84  A    between atoms: _194  and  _195
REMARK   85  A    between atoms: _199  and  _200
REMARK   86  A    between atoms: _205  and  _207
REMARK   87  A    between atoms: _207  and  _208
REMARK   88  A    between atoms: _207  and  _210
REMARK   89  A    between atoms: _210  and  _211
REMARK   90  A    between atoms: _215  and  _216
REMARK   91  A    between atoms: _221  and  _223
REMARK   92  A    between atoms: _223  and  _224
REMARK   93  A    between atoms: _223  and  _226
REMARK   94  A    between atoms: _229  and  _231
REMARK   95  A    between atoms: _231  and  _232
REMARK   96  A    between atoms: _231  and  _234
REMARK   97  A    between atoms: _234  and  _235
REMARK   98  A    between atoms: _240  and  _242
REMARK   99  A    between atoms: _242  and  _243
REMARK  100  A    between atoms: _242  and  _245
REMARK  101  A    between atoms: _245  and  _246
REMARK  102  A    between atoms: _249  and  _251
REMARK  103  A    between atoms: _251  and  _252
REMARK  104  A    between atoms: _251  and  _254
REMARK  105  A    between atoms: _254  and  _255
REMARK  106  A    between atoms: _258  and  _260
REMARK  107  A    between atoms: _260  and  _261
REMARK  108  A    between atoms: _263  and  _265
REMARK  109  A    between atoms: _265  and  _266
REMARK  110  A    between atoms: _265  and  _268
REMARK  111  A    between atoms: _268  and  _269
REMARK  112  A    between atoms: _269  and  _270
REMARK  113  A    between atoms: _270  and  _271
REMARK  114  A    between atoms: _280  and  _282
REMARK  115  A    between atoms: _282  and  _283
REMARK  116  A    between atoms: _282  and  _285
REMARK  117  A    between atoms: _285  and  _286
REMARK  118  A    between atoms: _291  and  _293
REMARK  119  A    between atoms: _293  and  _294
REMARK  120  A    between atoms: _293  and  _296
REMARK  121  A    between atoms: _296  and  _297
REMARK  122  A    between atoms: _297  and  _298
REMARK  123  A    between atoms: _298  and  _299
REMARK  124  A    between atoms: _308  and  _310
REMARK  125  A    between atoms: _310  and  _311
REMARK  126  A    between atoms: _310  and  _313
REMARK  127  A    between atoms: _313  and  _314
REMARK  128  A    between atoms: _317  and  _319
REMARK  129  A    between atoms: _319  and  _320
REMARK  130  A    between atoms: _319  and  _322
REMARK  131  A    between atoms: _322  and  _323
REMARK  132  A    between atoms: _326  and  _328
REMARK  133  A    between atoms: _328  and  _329
REMARK  134  A    between atoms: _328  and  _331
REMARK  135  A    between atoms: _331  and  _332
REMARK  136  A    between atoms: _335  and  _337
REMARK  137  A    between atoms: _337  and  _338
REMARK  138  A    between atoms: _337  and  _340
REMARK  139  A    between atoms: _340  and  _341
REMARK  140  A    between atoms: _344  and  _346
REMARK  141  A    between atoms: _346  and  _347
REMARK  142  A    between atoms: _349  and  _351
REMARK  143  A    between atoms: _351  and  _352
REMARK  144  A    between atoms: _355  and  _357
REMARK  145  A    between atoms: _357  and  _358
REMARK  146  A    between atoms: _357  and  _360
REMARK  147  A    between atoms: _360  and  _361
REMARK  148  A    between atoms: _364  and  _366
REMARK  149  A    between atoms: _366  and  _367
REMARK  150  A    between atoms: _366  and  _369
REMARK  151  A    between atoms: _369  and  _370
REMARK  152  A    between atoms: _373  and  _375
REMARK  153  A    between atoms: _375  and  _376
REMARK  154  A    between atoms: _375  and  _378
REMARK  155  A    between atoms: _378  and  _379
REMARK  156  A    between atoms: _382  and  _384
REMARK  157  A    between atoms: _384  and  _385
REMARK  158  A    between atoms: _384  and  _387
REMARK  159  A    between atoms: _390  and  _392
REMARK  160  A    between atoms: _392  and  _393
REMARK  161  A    between atoms: _392  and  _395
REMARK  162  A    between atoms: _395  and  _396
REMARK  163  A    between atoms: _399  and  _401
REMARK  164  A    between atoms: _401  and  _402
REMARK  165  A    between atoms: _401  and  _404
REMARK  166  A    between atoms: _404  and  _405
REMARK  167  A    between atoms: _405  and  _406
REMARK  168  A    between atoms: _406  and  _407
REMARK  169  A    between atoms: _407  and  _408
REMARK  170  A    between atoms: _412  and  _414
REMARK  171  A    between atoms: _414  and  _415
REMARK  172  A    between atoms: _414  and  _417
REMARK  173  A    between atoms: _417  and  _418
REMARK  174  A    between atoms: _418  and  _419
REMARK  175  A    between atoms: _421  and  _423
REMARK  176  A    between atoms: _423  and  _424
REMARK  177  A    between atoms: _423  and  _426
REMARK  178  A    between atoms: _426  and  _427
REMARK  179  A    between atoms: _430  and  _432
REMARK  180  A    between atoms: _432  and  _433
REMARK  181  A    between atoms: _435  and  _437
REMARK  182  A    between atoms: _437  and  _438
REMARK  183  A    between atoms: _440  and  _442
REMARK  184  A    between atoms: _442  and  _443
REMARK  185  A    between atoms: _442  and  _445
REMARK  186  A    between atoms: _445  and  _446
REMARK  187  A    between atoms: _449  and  _451
REMARK  188  A    between atoms: _451  and  _452
REMARK  189  A    between atoms: _454  and  _456
REMARK  190  A    between atoms: _456  and  _457
REMARK  191  A    between atoms: _459  and  _461
REMARK  192  A    between atoms: _461  and  _462
REMARK  193  A    between atoms: _461  and  _464
REMARK  194  A    between atoms: _464  and  _465
REMARK  195  A    between atoms: _471  and  _473
REMARK  196  A    between atoms: _473  and  _474
REMARK  197  A    between atoms: _473  and  _476
REMARK  198  A    between atoms: _476  and  _477
REMARK  199  A    between atoms: _477  and  _478
REMARK  200  A    between atoms: _480  and  _482
REMARK  201  A    between atoms: _482  and  _483
REMARK  202  A    between atoms: _482  and  _485
REMARK  203  A    between atoms: _488  and  _490
REMARK  204  A    between atoms: _490  and  _491
REMARK  205  A    between atoms: _490  and  _493
REMARK  206  A    between atoms: _493  and  _494
REMARK  207  A    between atoms: _497  and  _499
REMARK  208  A    between atoms: _499  and  _500
REMARK  209  A    between atoms: _499  and  _502
REMARK  210  A    between atoms: _502  and  _503
REMARK  211  A    between atoms: _507  and  _508
REMARK  212  A    between atoms: _513  and  _515
REMARK  213  A    between atoms: _515  and  _516
REMARK  214  A    between atoms: _515  and  _518
REMARK  215  A    between atoms: _521  and  _523
REMARK  216  A    between atoms: _523  and  _524
REMARK  217  A    between atoms: _523  and  _526
REMARK  218  A    between atoms: _526  and  _527
REMARK  219  A    between atoms: _532  and  _534
REMARK  220  A    between atoms: _534  and  _535
REMARK  221  A    between atoms: _534  and  _537
REMARK  222  A    between atoms: _537  and  _538
REMARK  223  A    between atoms: _541  and  _543
REMARK  224  A    between atoms: _543  and  _544
REMARK  225  A    between atoms: _543  and  _546
REMARK  226  A    between atoms: _546  and  _547
REMARK  227  A    between atoms: _550  and  _552
REMARK  228  A    between atoms: _552  and  _553
REMARK  229  A    between atoms: _555  and  _557
REMARK  230  A    between atoms: _557  and  _558
REMARK  231  A    between atoms: _557  and  _560
REMARK  232  A    between atoms: _560  and  _561
REMARK  233  A    between atoms: _561  and  _562
REMARK  234  A    between atoms: _562  and  _563
REMARK  235  A    between atoms: _572  and  _574
REMARK  236  A    between atoms: _574  and  _575
REMARK  237  A    between atoms: _574  and  _577
REMARK  238  A    between atoms: _577  and  _578
REMARK                            x       y       z     vdW  Elec       q    Type
REMARK                         _______ _______ _______ _____ _____    ______ ____
ROOT
ATOM      1  O   HOH     1     -25.606  -9.596 -11.391  0.00  0.00    +0.000 OA
ENDROOT
TORSDOF 0
REMARK  Name = ../refined-set-2016/3nu6/3nu6_pocket.pdb
REMARK  238 active torsions:
REMARK  status: ('A' for Active; 'I' for Inactive)
REMARK    1  A    between atoms: _1  and  _3
REMARK    2  A    between atoms: _3  and  _4
REMARK    3  A    between atoms: _3  and  _6
REMARK    4  A    between atoms: _6  and  _7
REMARK    5  A    between atoms: _7  and  _8
REMARK    6  A    between atoms: _8  and  _9
REMARK    7  A    between atoms: _18  and  _20
REMARK    8  A    between atoms: _20  and  _21
REMARK    9  A    between atoms: _20  and  _23
REMARK   10  A    between atoms: _23  and  _24
REMARK   11  A    between atoms: _27  and  _29
REMARK   12  A    between atoms: _29  and  _30
REMARK   13  A    between atoms: _29  and  _32
REMARK   14  A    between atoms: _32  and  _33
REMARK   15  A    between atoms: _36  and  _38
REMARK   16  A    between atoms: _38  and  _39
REMARK   17  A    between atoms: _38  and  _41
REMARK   18  A    between atoms: _41  and  _42
REMARK   19  A    between atoms: _45  and  _47
REMARK   20  A    between atoms: _47  and  _48
REMARK   21  A    between atoms: _47  and  _50
REMARK   22  A    between atoms: _50  and  _51
REMARK   23  A    between atoms: _54  and  _56
REMARK   24  A    between atoms: _56  and  _57
REMARK   25  A    between atoms: _59  and  _61
REMARK   26  A    between atoms: _61  and  _62
REMARK   27  A    between atoms: _65  and  _67
REMARK   28  A    between atoms: _67  and  _68
REMARK   29  A    between atoms: _67  and  _70
REMARK   30  A    between atoms: _70  and  _71
REMARK   31  A    between atoms: _74  and  _76
REMARK   32  A    between atoms: _76  and  _77
REMARK   33  A    between atoms: _76  and  _79
REMARK   34  A    between atoms: _79  and  _80
REMARK   35  A    between atoms: _83  and  _85
REMARK   36  A    between atoms: _85  and  _86
REMARK   37  A    between atoms: _85  and  _88
REMARK   38  A    between atoms: _88  and  _89
REMARK   39  A    between atoms: _92  and  _94
REMARK   40  A    between atoms: _94  and  _95
REMARK   41  A    between atoms: _94  and  _97
REMARK   42  A    between atoms: _100  and  _102
REMARK   43  A    between atoms: _102  and  _103
REMARK   44  A    between atoms: _102  and  _105
REMARK   45  A    between atoms: _106  and  _107
REMARK   46  A    between atoms: _107  and  _108
REMARK   47  A    between atoms: _108  and  _109
REMARK   48  A    between atoms: _113  and  _115
REMARK   49  A    between atoms: _115  and  _116
REMARK   50  A    between atoms: _115  and  _118
REMARK   51  A    between atoms: _118  and  _119
REMARK   52  A    between atoms: _119  and  _120
REMARK   53  A    between atoms: _122  and  _124
REMARK   54  A    between atoms: _124  and  _125
REMARK   55  A    between atoms: _124  and  _127
REMARK   56  A    between atoms: _127  and  _128
REMARK   57  A    between atoms: _131  and  _133
REMARK   58  A    between atoms: _133  and  _134
REMARK   59  A    between atoms: _136  and  _138
REMARK   60  A    between atoms: _138  and  _139
REMARK   61  A    between atoms: _141  and  _143
REMARK   62  A    between atoms: _143  and  _144
REMARK   63  A    between atoms: _143  and  _146
REMARK   64  A    between atoms: _146  and  _147
REMARK   65  A    between atoms: _150  and  _152
REMARK   66  A    between atoms: _152  and  _153
REMARK   67  A    between atoms: _155  and  _157
REMARK   68  A    between atoms: _157  and  _158
REMARK   69  A    between atoms: _160  and  _162
REMARK   70  A    between atoms: _162  and  _163
REMARK   71  A    between atoms: _162  and  _165
REMARK   72  A    between atoms: _165  and  _166
REMARK   73  A    between atoms: _172  and  _174
REMARK   74  A    between atoms: _174  and  _175
REMARK   75  A    between atoms: _174  and  _177
REMARK   76  A    between atoms: _177  and  _178
REMARK   77  A    between atoms: _178  and  _179
REMARK   78  A    between atoms: _181  and  _183
REMARK   79  A    between atoms: _183  and  _184
REMARK   80  A    between atoms: _183  and  _186
REMARK   81  A    between atoms: _189  and  _191
REMARK   82  A    between atoms: _191  and  _192
REMARK   83  A    between atoms: _191  and  _194
REMARK   84  A    between atoms: _194  and  _195
REMARK   85  A    between atoms: _199  and  _200
REMARK   86  A    between atoms: _205  and  _207
REMARK   87  A    between atoms: _207  and  _208
REMARK   88  A    between atoms: _207  and  _210
REMARK   89  A    between atoms: _210  and  _211
REMARK   90  A    between atoms: _215  and  _216
REMARK   91  A    between atoms: _221  and  _223
REMARK   92  A    between atoms: _223  and  _224
REMARK   93  A    between atoms: _223  and  _226
REMARK   94  A    between atoms: _229  and  _231
REMARK   95  A    between atoms: _231  and  _232
REMARK   96  A    between atoms: _231  and  _234
REMARK   97  A    between atoms: _234  and  _235
REMARK   98  A    between atoms: _240  and  _242
REMARK   99  A    between atoms: _242  and  _243
REMARK  100  A    between atoms: _242  and  _245
REMARK  101  A    between atoms: _245  and  _246
REMARK  102  A    between atoms: _249  and  _251
REMARK  103  A    between atoms: _251  and  _252
REMARK  104  A    between atoms: _251  and  _254
REMARK  105  A    between atoms: _254  and  _255
REMARK  106  A    between atoms: _258  and  _260
REMARK  107  A    between atoms: _260  and  _261
REMARK  108  A    between atoms: _263  and  _265
REMARK  109  A    between atoms: _265  and  _266
REMARK  110  A    between atoms: _265  and  _268
REMARK  111  A    between atoms: _268  and  _269
REMARK  112  A    between atoms: _269  and  _270
REMARK  113  A    between atoms: _270  and  _271
REMARK  114  A    between atoms: _280  and  _282
REMARK  115  A    between atoms: _282  and  _283
REMARK  116  A    between atoms: _282  and  _285
REMARK  117  A    between atoms: _285  and  _286
REMARK  118  A    between atoms: _291  and  _293
REMARK  119  A    between atoms: _293  and  _294
REMARK  120  A    between atoms: _293  and  _296
REMARK  121  A    between atoms: _296  and  _297
REMARK  122  A    between atoms: _297  and  _298
REMARK  123  A    between atoms: _298  and  _299
REMARK  124  A    between atoms: _308  and  _310
REMARK  125  A    between atoms: _310  and  _311
REMARK  126  A    between atoms: _310  and  _313
REMARK  127  A    between atoms: _313  and  _314
REMARK  128  A    between atoms: _317  and  _319
REMARK  129  A    between atoms: _319  and  _320
REMARK  130  A    between atoms: _319  and  _322
REMARK  131  A    between atoms: _322  and  _323
REMARK  132  A    between atoms: _326  and  _328
REMARK  133  A    between atoms: _328  and  _329
REMARK  134  A    between atoms: _328  and  _331
REMARK  135  A    between atoms: _331  and  _332
REMARK  136  A    between atoms: _335  and  _337
REMARK  137  A    between atoms: _337  and  _338
REMARK  138  A    between atoms: _337  and  _340
REMARK  139  A    between atoms: _340  and  _341
REMARK  140  A    between atoms: _344  and  _346
REMARK  141  A    between atoms: _346  and  _347
REMARK  142  A    between atoms: _349  and  _351
REMARK  143  A    between atoms: _351  and  _352
REMARK  144  A    between atoms: _355  and  _357
REMARK  145  A    between atoms: _357  and  _358
REMARK  146  A    between atoms: _357  and  _360
REMARK  147  A    between atoms: _360  and  _361
REMARK  148  A    between atoms: _364  and  _366
REMARK  149  A    between atoms: _366  and  _367
REMARK  150  A    between atoms: _366  and  _369
REMARK  151  A    between atoms: _369  and  _370
REMARK  152  A    between atoms: _373  and  _375
REMARK  153  A    between atoms: _375  and  _376
REMARK  154  A    between atoms: _375  and  _378
REMARK  155  A    between atoms: _378  and  _379
REMARK  156  A    between atoms: _382  and  _384
REMARK  157  A    between atoms: _384  and  _385
REMARK  158  A    between atoms: _384  and  _387
REMARK  159  A    between atoms: _390  and  _392
REMARK  160  A    between atoms: _392  and  _393
REMARK  161  A    between atoms: _392  and  _395
REMARK  162  A    between atoms: _395  and  _396
REMARK  163  A    between atoms: _399  and  _401
REMARK  164  A    between atoms: _401  and  _402
REMARK  165  A    between atoms: _401  and  _404
REMARK  166  A    between atoms: _404  and  _405
REMARK  167  A    between atoms: _405  and  _406
REMARK  168  A    between atoms: _406  and  _407
REMARK  169  A    between atoms: _407  and  _408
REMARK  170  A    between atoms: _412  and  _414
REMARK  171  A    between atoms: _414  and  _415
REMARK  172  A    between atoms: _414  and  _417
REMARK  173  A    between atoms: _417  and  _418
REMARK  174  A    between atoms: _418  and  _419
REMARK  175  A    between atoms: _421  and  _423
REMARK  176  A    between atoms: _423  and  _424
REMARK  177  A    between atoms: _423  and  _426
REMARK  178  A    between atoms: _426  and  _427
REMARK  179  A    between atoms: _430  and  _432
REMARK  180  A    between atoms: _432  and  _433
REMARK  181  A    between atoms: _435  and  _437
REMARK  182  A    between atoms: _437  and  _438
REMARK  183  A    between atoms: _440  and  _442
REMARK  184  A    between atoms: _442  and  _443
REMARK  185  A    between atoms: _442  and  _445
REMARK  186  A    between atoms: _445  and  _446
REMARK  187  A    between atoms: _449  and  _451
REMARK  188  A    between atoms: _451  and  _452
REMARK  189  A    between atoms: _454  and  _456
REMARK  190  A    between atoms: _456  and  _457
REMARK  191  A    between atoms: _459  and  _461
REMARK  192  A    between atoms: _461  and  _462
REMARK  193  A    between atoms: _461  and  _464
REMARK  194  A    between atoms: _464  and  _465
REMARK  195  A    between atoms: _471  and  _473
REMARK  196  A    between atoms: _473  and  _474
REMARK  197  A    between atoms: _473  and  _476
REMARK  198  A    between atoms: _476  and  _477
REMARK  199  A    between atoms: _477  and  _478
REMARK  200  A    between atoms: _480  and  _482
REMARK  201  A    between atoms: _482  and  _483
REMARK  202  A    between atoms: _482  and  _485
REMARK  203  A    between atoms: _488  and  _490
REMARK  204  A    between atoms: _490  and  _491
REMARK  205  A    between atoms: _490  and  _493
REMARK  206  A    between atoms: _493  and  _494
REMARK  207  A    between atoms: _497  and  _499
REMARK  208  A    between atoms: _499  and  _500
REMARK  209  A    between atoms: _499  and  _502
REMARK  210  A    between atoms: _502  and  _503
REMARK  211  A    between atoms: _507  and  _508
REMARK  212  A    between atoms: _513  and  _515
REMARK  213  A    between atoms: _515  and  _516
REMARK  214  A    between atoms: _515  and  _518
REMARK  215  A    between atoms: _521  and  _523
REMARK  216  A    between atoms: _523  and  _524
REMARK  217  A    between atoms: _523  and  _526
REMARK  218  A    between atoms: _526  and  _527
REMARK  219  A    between atoms: _532  and  _534
REMARK  220  A    between atoms: _534  and  _535
REMARK  221  A    between atoms: _534  and  _537
REMARK  222  A    between atoms: _537  and  _538
REMARK  223  A    between atoms: _541  and  _543
REMARK  224  A    between atoms: _543  and  _544
REMARK  225  A    between atoms: _543  and  _546
REMARK  226  A    between atoms: _546  and  _547
REMARK  227  A    between atoms: _550  and  _552
REMARK  228  A    between atoms: _552  and  _553
REMARK  229  A    between atoms: _555  and  _557
REMARK  230  A    between atoms: _557  and  _558
REMARK  231  A    between atoms: _557  and  _560
REMARK  232  A    between atoms: _560  and  _561
REMARK  233  A    between atoms: _561  and  _562
REMARK  234  A    between atoms: _562  and  _563
REMARK  235  A    between atoms: _572  and  _574
REMARK  236  A    between atoms: _574  and  _575
REMARK  237  A    between atoms: _574  and  _577
REMARK  238  A    between atoms: _577  and  _578
REMARK                            x       y       z     vdW  Elec       q    Type
REMARK                         _______ _______ _______ _____ _____    ______ ____
ROOT
ATOM      1  O   HOH     1     -27.171 -15.207 -14.516  0.00  0.00    +0.000 OA
ENDROOT
TORSDOF 0
REMARK  Name = ../refined-set-2016/3nu6/3nu6_pocket.pdb
REMARK  238 active torsions:
REMARK  status: ('A' for Active; 'I' for Inactive)
REMARK    1  A    between atoms: _1  and  _3
REMARK    2  A    between atoms: _3  and  _4
REMARK    3  A    between atoms: _3  and  _6
REMARK    4  A    between atoms: _6  and  _7
REMARK    5  A    between atoms: _7  and  _8
REMARK    6  A    between atoms: _8  and  _9
REMARK    7  A    between atoms: _18  and  _20
REMARK    8  A    between atoms: _20  and  _21
REMARK    9  A    between atoms: _20  and  _23
REMARK   10  A    between atoms: _23  and  _24
REMARK   11  A    between atoms: _27  and  _29
REMARK   12  A    between atoms: _29  and  _30
REMARK   13  A    between atoms: _29  and  _32
REMARK   14  A    between atoms: _32  and  _33
REMARK   15  A    between atoms: _36  and  _38
REMARK   16  A    between atoms: _38  and  _39
REMARK   17  A    between atoms: _38  and  _41
REMARK   18  A    between atoms: _41  and  _42
REMARK   19  A    between atoms: _45  and  _47
REMARK   20  A    between atoms: _47  and  _48
REMARK   21  A    between atoms: _47  and  _50
REMARK   22  A    between atoms: _50  and  _51
REMARK   23  A    between atoms: _54  and  _56
REMARK   24  A    between atoms: _56  and  _57
REMARK   25  A    between atoms: _59  and  _61
REMARK   26  A    between atoms: _61  and  _62
REMARK   27  A    between atoms: _65  and  _67
REMARK   28  A    between atoms: _67  and  _68
REMARK   29  A    between atoms: _67  and  _70
REMARK   30  A    between atoms: _70  and  _71
REMARK   31  A    between atoms: _74  and  _76
REMARK   32  A    between atoms: _76  and  _77
REMARK   33  A    between atoms: _76  and  _79
REMARK   34  A    between atoms: _79  and  _80
REMARK   35  A    between atoms: _83  and  _85
REMARK   36  A    between atoms: _85  and  _86
REMARK   37  A    between atoms: _85  and  _88
REMARK   38  A    between atoms: _88  and  _89
REMARK   39  A    between atoms: _92  and  _94
REMARK   40  A    between atoms: _94  and  _95
REMARK   41  A    between atoms: _94  and  _97
REMARK   42  A    between atoms: _100  and  _102
REMARK   43  A    between atoms: _102  and  _103
REMARK   44  A    between atoms: _102  and  _105
REMARK   45  A    between atoms: _106  and  _107
REMARK   46  A    between atoms: _107  and  _108
REMARK   47  A    between atoms: _108  and  _109
REMARK   48  A    between atoms: _113  and  _115
REMARK   49  A    between atoms: _115  and  _116
REMARK   50  A    between atoms: _115  and  _118
REMARK   51  A    between atoms: _118  and  _119
REMARK   52  A    between atoms: _119  and  _120
REMARK   53  A    between atoms: _122  and  _124
REMARK   54  A    between atoms: _124  and  _125
REMARK   55  A    between atoms: _124  and  _127
REMARK   56  A    between atoms: _127  and  _128
REMARK   57  A    between atoms: _131  and  _133
REMARK   58  A    between atoms: _133  and  _134
REMARK   59  A    between atoms: _136  and  _138
REMARK   60  A    between atoms: _138  and  _139
REMARK   61  A    between atoms: _141  and  _143
REMARK   62  A    between atoms: _143  and  _144
REMARK   63  A    between atoms: _143  and  _146
REMARK   64  A    between atoms: _146  and  _147
REMARK   65  A    between atoms: _150  and  _152
REMARK   66  A    between atoms: _152  and  _153
REMARK   67  A    between atoms: _155  and  _157
REMARK   68  A    between atoms: _157  and  _158
REMARK   69  A    between atoms: _160  and  _162
REMARK   70  A    between atoms: _162  and  _163
REMARK   71  A    between atoms: _162  and  _165
REMARK   72  A    between atoms: _165  and  _166
REMARK   73  A    between atoms: _172  and  _174
REMARK   74  A    between atoms: _174  and  _175
REMARK   75  A    between atoms: _174  and  _177
REMARK   76  A    between atoms: _177  and  _178
REMARK   77  A    between atoms: _178  and  _179
REMARK   78  A    between atoms: _181  and  _183
REMARK   79  A    between atoms: _183  and  _184
REMARK   80  A    between atoms: _183  and  _186
REMARK   81  A    between atoms: _189  and  _191
REMARK   82  A    between atoms: _191  and  _192
REMARK   83  A    between atoms: _191  and  _194
REMARK   84  A    between atoms: _194  and  _195
REMARK   85  A    between atoms: _199  and  _200
REMARK   86  A    between atoms: _205  and  _207
REMARK   87  A    between atoms: _207  and  _208
REMARK   88  A    between atoms: _207  and  _210
REMARK   89  A    between atoms: _210  and  _211
REMARK   90  A    between atoms: _215  and  _216
REMARK   91  A    between atoms: _221  and  _223
REMARK   92  A    between atoms: _223  and  _224
REMARK   93  A    between atoms: _223  and  _226
REMARK   94  A    between atoms: _229  and  _231
REMARK   95  A    between atoms: _231  and  _232
REMARK   96  A    between atoms: _231  and  _234
REMARK   97  A    between atoms: _234  and  _235
REMARK   98  A    between atoms: _240  and  _242
REMARK   99  A    between atoms: _242  and  _243
REMARK  100  A    between atoms: _242  and  _245
REMARK  101  A    between atoms: _245  and  _246
REMARK  102  A    between atoms: _249  and  _251
REMARK  103  A    between atoms: _251  and  _252
REMARK  104  A    between atoms: _251  and  _254
REMARK  105  A    between atoms: _254  and  _255
REMARK  106  A    between atoms: _258  and  _260
REMARK  107  A    between atoms: _260  and  _261
REMARK  108  A    between atoms: _263  and  _265
REMARK  109  A    between atoms: _265  and  _266
REMARK  110  A    between atoms: _265  and  _268
REMARK  111  A    between atoms: _268  and  _269
REMARK  112  A    between atoms: _269  and  _270
REMARK  113  A    between atoms: _270  and  _271
REMARK  114  A    between atoms: _280  and  _282
REMARK  115  A    between atoms: _282  and  _283
REMARK  116  A    between atoms: _282  and  _285
REMARK  117  A    between atoms: _285  and  _286
REMARK  118  A    between atoms: _291  and  _293
REMARK  119  A    between atoms: _293  and  _294
REMARK  120  A    between atoms: _293  and  _296
REMARK  121  A    between atoms: _296  and  _297
REMARK  122  A    between atoms: _297  and  _298
REMARK  123  A    between atoms: _298  and  _299
REMARK  124  A    between atoms: _308  and  _310
REMARK  125  A    between atoms: _310  and  _311
REMARK  126  A    between atoms: _310  and  _313
REMARK  127  A    between atoms: _313  and  _314
REMARK  128  A    between atoms: _317  and  _319
REMARK  129  A    between atoms: _319  and  _320
REMARK  130  A    between atoms: _319  and  _322
REMARK  131  A    between atoms: _322  and  _323
REMARK  132  A    between atoms: _326  and  _328
REMARK  133  A    between atoms: _328  and  _329
REMARK  134  A    between atoms: _328  and  _331
REMARK  135  A    between atoms: _331  and  _332
REMARK  136  A    between atoms: _335  and  _337
REMARK  137  A    between atoms: _337  and  _338
REMARK  138  A    between atoms: _337  and  _340
REMARK  139  A    between atoms: _340  and  _341
REMARK  140  A    between atoms: _344  and  _346
REMARK  141  A    between atoms: _346  and  _347
REMARK  142  A    between atoms: _349  and  _351
REMARK  143  A    between atoms: _351  and  _352
REMARK  144  A    between atoms: _355  and  _357
REMARK  145  A    between atoms: _357  and  _358
REMARK  146  A    between atoms: _357  and  _360
REMARK  147  A    between atoms: _360  and  _361
REMARK  148  A    between atoms: _364  and  _366
REMARK  149  A    between atoms: _366  and  _367
REMARK  150  A    between atoms: _366  and  _369
REMARK  151  A    between atoms: _369  and  _370
REMARK  152  A    between atoms: _373  and  _375
REMARK  153  A    between atoms: _375  and  _376
REMARK  154  A    between atoms: _375  and  _378
REMARK  155  A    between atoms: _378  and  _379
REMARK  156  A    between atoms: _382  and  _384
REMARK  157  A    between atoms: _384  and  _385
REMARK  158  A    between atoms: _384  and  _387
REMARK  159  A    between atoms: _390  and  _392
REMARK  160  A    between atoms: _392  and  _393
REMARK  161  A    between atoms: _392  and  _395
REMARK  162  A    between atoms: _395  and  _396
REMARK  163  A    between atoms: _399  and  _401
REMARK  164  A    between atoms: _401  and  _402
REMARK  165  A    between atoms: _401  and  _404
REMARK  166  A    between atoms: _404  and  _405
REMARK  167  A    between atoms: _405  and  _406
REMARK  168  A    between atoms: _406  and  _407
REMARK  169  A    between atoms: _407  and  _408
REMARK  170  A    between atoms: _412  and  _414
REMARK  171  A    between atoms: _414  and  _415
REMARK  172  A    between atoms: _414  and  _417
REMARK  173  A    between atoms: _417  and  _418
REMARK  174  A    between atoms: _418  and  _419
REMARK  175  A    between atoms: _421  and  _423
REMARK  176  A    between atoms: _423  and  _424
REMARK  177  A    between atoms: _423  and  _426
REMARK  178  A    between atoms: _426  and  _427
REMARK  179  A    between atoms: _430  and  _432
REMARK  180  A    between atoms: _432  and  _433
REMARK  181  A    between atoms: _435  and  _437
REMARK  182  A    between atoms: _437  and  _438
REMARK  183  A    between atoms: _440  and  _442
REMARK  184  A    between atoms: _442  and  _443
REMARK  185  A    between atoms: _442  and  _445
REMARK  186  A    between atoms: _445  and  _446
REMARK  187  A    between atoms: _449  and  _451
REMARK  188  A    between atoms: _451  and  _452
REMARK  189  A    between atoms: _454  and  _456
REMARK  190  A    between atoms: _456  and  _457
REMARK  191  A    between atoms: _459  and  _461
REMARK  192  A    between atoms: _461  and  _462
REMARK  193  A    between atoms: _461  and  _464
REMARK  194  A    between atoms: _464  and  _465
REMARK  195  A    between atoms: _471  and  _473
REMARK  196  A    between atoms: _473  and  _474
REMARK  197  A    between atoms: _473  and  _476
REMARK  198  A    between atoms: _476  and  _477
REMARK  199  A    between atoms: _477  and  _478
REMARK  200  A    between atoms: _480  and  _482
REMARK  201  A    between atoms: _482  and  _483
REMARK  202  A    between atoms: _482  and  _485
REMARK  203  A    between atoms: _488  and  _490
REMARK  204  A    between atoms: _490  and  _491
REMARK  205  A    between atoms: _490  and  _493
REMARK  206  A    between atoms: _493  and  _494
REMARK  207  A    between atoms: _497  and  _499
REMARK  208  A    between atoms: _499  and  _500
REMARK  209  A    between atoms: _499  and  _502
REMARK  210  A    between atoms: _502  and  _503
REMARK  211  A    between atoms: _507  and  _508
REMARK  212  A    between atoms: _513  and  _515
REMARK  213  A    between atoms: _515  and  _516
REMARK  214  A    between atoms: _515  and  _518
REMARK  215  A    between atoms: _521  and  _523
REMARK  216  A    between atoms: _523  and  _524
REMARK  217  A    between atoms: _523  and  _526
REMARK  218  A    between atoms: _526  and  _527
REMARK  219  A    between atoms: _532  and  _534
REMARK  220  A    between atoms: _534  and  _535
REMARK  221  A    between atoms: _534  and  _537
REMARK  222  A    between atoms: _537  and  _538
REMARK  223  A    between atoms: _541  and  _543
REMARK  224  A    between atoms: _543  and  _544
REMARK  225  A    between atoms: _543  and  _546
REMARK  226  A    between atoms: _546  and  _547
REMARK  227  A    between atoms: _550  and  _552
REMARK  228  A    between atoms: _552  and  _553
REMARK  229  A    between atoms: _555  and  _557
REMARK  230  A    between atoms: _557  and  _558
REMARK  231  A    between atoms: _557  and  _560
REMARK  232  A    between atoms: _560  and  _561
REMARK  233  A    between atoms: _561  and  _562
REMARK  234  A    between atoms: _562  and  _563
REMARK  235  A    between atoms: _572  and  _574
REMARK  236  A    between atoms: _574  and  _575
REMARK  237  A    between atoms: _574  and  _577
REMARK  238  A    between atoms: _577  and  _578
REMARK                            x       y       z     vdW  Elec       q    Type
REMARK                         _______ _______ _______ _____ _____    ______ ____
ROOT
ATOM      1  O   HOH     1     -24.440 -14.028 -16.281  0.00  0.00    +0.000 OA
ENDROOT
TORSDOF 0
REMARK  Name = ../refined-set-2016/3nu6/3nu6_pocket.pdb
REMARK  238 active torsions:
REMARK  status: ('A' for Active; 'I' for Inactive)
REMARK    1  A    between atoms: _1  and  _3
REMARK    2  A    between atoms: _3  and  _4
REMARK    3  A    between atoms: _3  and  _6
REMARK    4  A    between atoms: _6  and  _7
REMARK    5  A    between atoms: _7  and  _8
REMARK    6  A    between atoms: _8  and  _9
REMARK    7  A    between atoms: _18  and  _20
REMARK    8  A    between atoms: _20  and  _21
REMARK    9  A    between atoms: _20  and  _23
REMARK   10  A    between atoms: _23  and  _24
REMARK   11  A    between atoms: _27  and  _29
REMARK   12  A    between atoms: _29  and  _30
REMARK   13  A    between atoms: _29  and  _32
REMARK   14  A    between atoms: _32  and  _33
REMARK   15  A    between atoms: _36  and  _38
REMARK   16  A    between atoms: _38  and  _39
REMARK   17  A    between atoms: _38  and  _41
REMARK   18  A    between atoms: _41  and  _42
REMARK   19  A    between atoms: _45  and  _47
REMARK   20  A    between atoms: _47  and  _48
REMARK   21  A    between atoms: _47  and  _50
REMARK   22  A    between atoms: _50  and  _51
REMARK   23  A    between atoms: _54  and  _56
REMARK   24  A    between atoms: _56  and  _57
REMARK   25  A    between atoms: _59  and  _61
REMARK   26  A    between atoms: _61  and  _62
REMARK   27  A    between atoms: _65  and  _67
REMARK   28  A    between atoms: _67  and  _68
REMARK   29  A    between atoms: _67  and  _70
REMARK   30  A    between atoms: _70  and  _71
REMARK   31  A    between atoms: _74  and  _76
REMARK   32  A    between atoms: _76  and  _77
REMARK   33  A    between atoms: _76  and  _79
REMARK   34  A    between atoms: _79  and  _80
REMARK   35  A    between atoms: _83  and  _85
REMARK   36  A    between atoms: _85  and  _86
REMARK   37  A    between atoms: _85  and  _88
REMARK   38  A    between atoms: _88  and  _89
REMARK   39  A    between atoms: _92  and  _94
REMARK   40  A    between atoms: _94  and  _95
REMARK   41  A    between atoms: _94  and  _97
REMARK   42  A    between atoms: _100  and  _102
REMARK   43  A    between atoms: _102  and  _103
REMARK   44  A    between atoms: _102  and  _105
REMARK   45  A    between atoms: _106  and  _107
REMARK   46  A    between atoms: _107  and  _108
REMARK   47  A    between atoms: _108  and  _109
REMARK   48  A    between atoms: _113  and  _115
REMARK   49  A    between atoms: _115  and  _116
REMARK   50  A    between atoms: _115  and  _118
REMARK   51  A    between atoms: _118  and  _119
REMARK   52  A    between atoms: _119  and  _120
REMARK   53  A    between atoms: _122  and  _124
REMARK   54  A    between atoms: _124  and  _125
REMARK   55  A    between atoms: _124  and  _127
REMARK   56  A    between atoms: _127  and  _128
REMARK   57  A    between atoms: _131  and  _133
REMARK   58  A    between atoms: _133  and  _134
REMARK   59  A    between atoms: _136  and  _138
REMARK   60  A    between atoms: _138  and  _139
REMARK   61  A    between atoms: _141  and  _143
REMARK   62  A    between atoms: _143  and  _144
REMARK   63  A    between atoms: _143  and  _146
REMARK   64  A    between atoms: _146  and  _147
REMARK   65  A    between atoms: _150  and  _152
REMARK   66  A    between atoms: _152  and  _153
REMARK   67  A    between atoms: _155  and  _157
REMARK   68  A    between atoms: _157  and  _158
REMARK   69  A    between atoms: _160  and  _162
REMARK   70  A    between atoms: _162  and  _163
REMARK   71  A    between atoms: _162  and  _165
REMARK   72  A    between atoms: _165  and  _166
REMARK   73  A    between atoms: _172  and  _174
REMARK   74  A    between atoms: _174  and  _175
REMARK   75  A    between atoms: _174  and  _177
REMARK   76  A    between atoms: _177  and  _178
REMARK   77  A    between atoms: _178  and  _179
REMARK   78  A    between atoms: _181  and  _183
REMARK   79  A    between atoms: _183  and  _184
REMARK   80  A    between atoms: _183  and  _186
REMARK   81  A    between atoms: _189  and  _191
REMARK   82  A    between atoms: _191  and  _192
REMARK   83  A    between atoms: _191  and  _194
REMARK   84  A    between atoms: _194  and  _195
REMARK   85  A    between atoms: _199  and  _200
REMARK   86  A    between atoms: _205  and  _207
REMARK   87  A    between atoms: _207  and  _208
REMARK   88  A    between atoms: _207  and  _210
REMARK   89  A    between atoms: _210  and  _211
REMARK   90  A    between atoms: _215  and  _216
REMARK   91  A    between atoms: _221  and  _223
REMARK   92  A    between atoms: _223  and  _224
REMARK   93  A    between atoms: _223  and  _226
REMARK   94  A    between atoms: _229  and  _231
REMARK   95  A    between atoms: _231  and  _232
REMARK   96  A    between atoms: _231  and  _234
REMARK   97  A    between atoms: _234  and  _235
REMARK   98  A    between atoms: _240  and  _242
REMARK   99  A    between atoms: _242  and  _243
REMARK  100  A    between atoms: _242  and  _245
REMARK  101  A    between atoms: _245  and  _246
REMARK  102  A    between atoms: _249  and  _251
REMARK  103  A    between atoms: _251  and  _252
REMARK  104  A    between atoms: _251  and  _254
REMARK  105  A    between atoms: _254  and  _255
REMARK  106  A    between atoms: _258  and  _260
REMARK  107  A    between atoms: _260  and  _261
REMARK  108  A    between atoms: _263  and  _265
REMARK  109  A    between atoms: _265  and  _266
REMARK  110  A    between atoms: _265  and  _268
REMARK  111  A    between atoms: _268  and  _269
REMARK  112  A    between atoms: _269  and  _270
REMARK  113  A    between atoms: _270  and  _271
REMARK  114  A    between atoms: _280  and  _282
REMARK  115  A    between atoms: _282  and  _283
REMARK  116  A    between atoms: _282  and  _285
REMARK  117  A    between atoms: _285  and  _286
REMARK  118  A    between atoms: _291  and  _293
REMARK  119  A    between atoms: _293  and  _294
REMARK  120  A    between atoms: _293  and  _296
REMARK  121  A    between atoms: _296  and  _297
REMARK  122  A    between atoms: _297  and  _298
REMARK  123  A    between atoms: _298  and  _299
REMARK  124  A    between atoms: _308  and  _310
REMARK  125  A    between atoms: _310  and  _311
REMARK  126  A    between atoms: _310  and  _313
REMARK  127  A    between atoms: _313  and  _314
REMARK  128  A    between atoms: _317  and  _319
REMARK  129  A    between atoms: _319  and  _320
REMARK  130  A    between atoms: _319  and  _322
REMARK  131  A    between atoms: _322  and  _323
REMARK  132  A    between atoms: _326  and  _328
REMARK  133  A    between atoms: _328  and  _329
REMARK  134  A    between atoms: _328  and  _331
REMARK  135  A    between atoms: _331  and  _332
REMARK  136  A    between atoms: _335  and  _337
REMARK  137  A    between atoms: _337  and  _338
REMARK  138  A    between atoms: _337  and  _340
REMARK  139  A    between atoms: _340  and  _341
REMARK  140  A    between atoms: _344  and  _346
REMARK  141  A    between atoms: _346  and  _347
REMARK  142  A    between atoms: _349  and  _351
REMARK  143  A    between atoms: _351  and  _352
REMARK  144  A    between atoms: _355  and  _357
REMARK  145  A    between atoms: _357  and  _358
REMARK  146  A    between atoms: _357  and  _360
REMARK  147  A    between atoms: _360  and  _361
REMARK  148  A    between atoms: _364  and  _366
REMARK  149  A    between atoms: _366  and  _367
REMARK  150  A    between atoms: _366  and  _369
REMARK  151  A    between atoms: _369  and  _370
REMARK  152  A    between atoms: _373  and  _375
REMARK  153  A    between atoms: _375  and  _376
REMARK  154  A    between atoms: _375  and  _378
REMARK  155  A    between atoms: _378  and  _379
REMARK  156  A    between atoms: _382  and  _384
REMARK  157  A    between atoms: _384  and  _385
REMARK  158  A    between atoms: _384  and  _387
REMARK  159  A    between atoms: _390  and  _392
REMARK  160  A    between atoms: _392  and  _393
REMARK  161  A    between atoms: _392  and  _395
REMARK  162  A    between atoms: _395  and  _396
REMARK  163  A    between atoms: _399  and  _401
REMARK  164  A    between atoms: _401  and  _402
REMARK  165  A    between atoms: _401  and  _404
REMARK  166  A    between atoms: _404  and  _405
REMARK  167  A    between atoms: _405  and  _406
REMARK  168  A    between atoms: _406  and  _407
REMARK  169  A    between atoms: _407  and  _408
REMARK  170  A    between atoms: _412  and  _414
REMARK  171  A    between atoms: _414  and  _415
REMARK  172  A    between atoms: _414  and  _417
REMARK  173  A    between atoms: _417  and  _418
REMARK  174  A    between atoms: _418  and  _419
REMARK  175  A    between atoms: _421  and  _423
REMARK  176  A    between atoms: _423  and  _424
REMARK  177  A    between atoms: _423  and  _426
REMARK  178  A    between atoms: _426  and  _427
REMARK  179  A    between atoms: _430  and  _432
REMARK  180  A    between atoms: _432  and  _433
REMARK  181  A    between atoms: _435  and  _437
REMARK  182  A    between atoms: _437  and  _438
REMARK  183  A    between atoms: _440  and  _442
REMARK  184  A    between atoms: _442  and  _443
REMARK  185  A    between atoms: _442  and  _445
REMARK  186  A    between atoms: _445  and  _446
REMARK  187  A    between atoms: _449  and  _451
REMARK  188  A    between atoms: _451  and  _452
REMARK  189  A    between atoms: _454  and  _456
REMARK  190  A    between atoms: _456  and  _457
REMARK  191  A    between atoms: _459  and  _461
REMARK  192  A    between atoms: _461  and  _462
REMARK  193  A    between atoms: _461  and  _464
REMARK  194  A    between atoms: _464  and  _465
REMARK  195  A    between atoms: _471  and  _473
REMARK  196  A    between atoms: _473  and  _474
REMARK  197  A    between atoms: _473  and  _476
REMARK  198  A    between atoms: _476  and  _477
REMARK  199  A    between atoms: _477  and  _478
REMARK  200  A    between atoms: _480  and  _482
REMARK  201  A    between atoms: _482  and  _483
REMARK  202  A    between atoms: _482  and  _485
REMARK  203  A    between atoms: _488  and  _490
REMARK  204  A    between atoms: _490  and  _491
REMARK  205  A    between atoms: _490  and  _493
REMARK  206  A    between atoms: _493  and  _494
REMARK  207  A    between atoms: _497  and  _499
REMARK  208  A    between atoms: _499  and  _500
REMARK  209  A    between atoms: _499  and  _502
REMARK  210  A    between atoms: _502  and  _503
REMARK  211  A    between atoms: _507  and  _508
REMARK  212  A    between atoms: _513  and  _515
REMARK  213  A    between atoms: _515  and  _516
REMARK  214  A    between atoms: _515  and  _518
REMARK  215  A    between atoms: _521  and  _523
REMARK  216  A    between atoms: _523  and  _524
REMARK  217  A    between atoms: _523  and  _526
REMARK  218  A    between atoms: _526  and  _527
REMARK  219  A    between atoms: _532  and  _534
REMARK  220  A    between atoms: _534  and  _535
REMARK  221  A    between atoms: _534  and  _537
REMARK  222  A    between atoms: _537  and  _538
REMARK  223  A    between atoms: _541  and  _543
REMARK  224  A    between atoms: _543  and  _544
REMARK  225  A    between atoms: _543  and  _546
REMARK  226  A    between atoms: _546  and  _547
REMARK  227  A    between atoms: _550  and  _552
REMARK  228  A    between atoms: _552  and  _553
REMARK  229  A    between atoms: _555  and  _557
REMARK  230  A    between atoms: _557  and  _558
REMARK  231  A    between atoms: _557  and  _560
REMARK  232  A    between atoms: _560  and  _561
REMARK  233  A    between atoms: _561  and  _562
REMARK  234  A    between atoms: _562  and  _563
REMARK  235  A    between atoms: _572  and  _574
REMARK  236  A    between atoms: _574  and  _575
REMARK  237  A    between atoms: _574  and  _577
REMARK  238  A    between atoms: _577  and  _578
REMARK                            x       y       z     vdW  Elec       q    Type
REMARK                         _______ _______ _______ _____ _____    ______ ____
ROOT
ATOM      1  O   HOH     1     -20.641  -9.357 -10.362  0.00  0.00    +0.000 OA
ENDROOT
TORSDOF 0
REMARK  Name = ../refined-set-2016/3nu6/3nu6_pocket.pdb
REMARK  238 active torsions:
REMARK  status: ('A' for Active; 'I' for Inactive)
REMARK    1  A    between atoms: _1  and  _3
REMARK    2  A    between atoms: _3  and  _4
REMARK    3  A    between atoms: _3  and  _6
REMARK    4  A    between atoms: _6  and  _7
REMARK    5  A    between atoms: _7  and  _8
REMARK    6  A    between atoms: _8  and  _9
REMARK    7  A    between atoms: _18  and  _20
REMARK    8  A    between atoms: _20  and  _21
REMARK    9  A    between atoms: _20  and  _23
REMARK   10  A    between atoms: _23  and  _24
REMARK   11  A    between atoms: _27  and  _29
REMARK   12  A    between atoms: _29  and  _30
REMARK   13  A    between atoms: _29  and  _32
REMARK   14  A    between atoms: _32  and  _33
REMARK   15  A    between atoms: _36  and  _38
REMARK   16  A    between atoms: _38  and  _39
REMARK   17  A    between atoms: _38  and  _41
REMARK   18  A    between atoms: _41  and  _42
REMARK   19  A    between atoms: _45  and  _47
REMARK   20  A    between atoms: _47  and  _48
REMARK   21  A    between atoms: _47  and  _50
REMARK   22  A    between atoms: _50  and  _51
REMARK   23  A    between atoms: _54  and  _56
REMARK   24  A    between atoms: _56  and  _57
REMARK   25  A    between atoms: _59  and  _61
REMARK   26  A    between atoms: _61  and  _62
REMARK   27  A    between atoms: _65  and  _67
REMARK   28  A    between atoms: _67  and  _68
REMARK   29  A    between atoms: _67  and  _70
REMARK   30  A    between atoms: _70  and  _71
REMARK   31  A    between atoms: _74  and  _76
REMARK   32  A    between atoms: _76  and  _77
REMARK   33  A    between atoms: _76  and  _79
REMARK   34  A    between atoms: _79  and  _80
REMARK   35  A    between atoms: _83  and  _85
REMARK   36  A    between atoms: _85  and  _86
REMARK   37  A    between atoms: _85  and  _88
REMARK   38  A    between atoms: _88  and  _89
REMARK   39  A    between atoms: _92  and  _94
REMARK   40  A    between atoms: _94  and  _95
REMARK   41  A    between atoms: _94  and  _97
REMARK   42  A    between atoms: _100  and  _102
REMARK   43  A    between atoms: _102  and  _103
REMARK   44  A    between atoms: _102  and  _105
REMARK   45  A    between atoms: _106  and  _107
REMARK   46  A    between atoms: _107  and  _108
REMARK   47  A    between atoms: _108  and  _109
REMARK   48  A    between atoms: _113  and  _115
REMARK   49  A    between atoms: _115  and  _116
REMARK   50  A    between atoms: _115  and  _118
REMARK   51  A    between atoms: _118  and  _119
REMARK   52  A    between atoms: _119  and  _120
REMARK   53  A    between atoms: _122  and  _124
REMARK   54  A    between atoms: _124  and  _125
REMARK   55  A    between atoms: _124  and  _127
REMARK   56  A    between atoms: _127  and  _128
REMARK   57  A    between atoms: _131  and  _133
REMARK   58  A    between atoms: _133  and  _134
REMARK   59  A    between atoms: _136  and  _138
REMARK   60  A    between atoms: _138  and  _139
REMARK   61  A    between atoms: _141  and  _143
REMARK   62  A    between atoms: _143  and  _144
REMARK   63  A    between atoms: _143  and  _146
REMARK   64  A    between atoms: _146  and  _147
REMARK   65  A    between atoms: _150  and  _152
REMARK   66  A    between atoms: _152  and  _153
REMARK   67  A    between atoms: _155  and  _157
REMARK   68  A    between atoms: _157  and  _158
REMARK   69  A    between atoms: _160  and  _162
REMARK   70  A    between atoms: _162  and  _163
REMARK   71  A    between atoms: _162  and  _165
REMARK   72  A    between atoms: _165  and  _166
REMARK   73  A    between atoms: _172  and  _174
REMARK   74  A    between atoms: _174  and  _175
REMARK   75  A    between atoms: _174  and  _177
REMARK   76  A    between atoms: _177  and  _178
REMARK   77  A    between atoms: _178  and  _179
REMARK   78  A    between atoms: _181  and  _183
REMARK   79  A    between atoms: _183  and  _184
REMARK   80  A    between atoms: _183  and  _186
REMARK   81  A    between atoms: _189  and  _191
REMARK   82  A    between atoms: _191  and  _192
REMARK   83  A    between atoms: _191  and  _194
REMARK   84  A    between atoms: _194  and  _195
REMARK   85  A    between atoms: _199  and  _200
REMARK   86  A    between atoms: _205  and  _207
REMARK   87  A    between atoms: _207  and  _208
REMARK   88  A    between atoms: _207  and  _210
REMARK   89  A    between atoms: _210  and  _211
REMARK   90  A    between atoms: _215  and  _216
REMARK   91  A    between atoms: _221  and  _223
REMARK   92  A    between atoms: _223  and  _224
REMARK   93  A    between atoms: _223  and  _226
REMARK   94  A    between atoms: _229  and  _231
REMARK   95  A    between atoms: _231  and  _232
REMARK   96  A    between atoms: _231  and  _234
REMARK   97  A    between atoms: _234  and  _235
REMARK   98  A    between atoms: _240  and  _242
REMARK   99  A    between atoms: _242  and  _243
REMARK  100  A    between atoms: _242  and  _245
REMARK  101  A    between atoms: _245  and  _246
REMARK  102  A    between atoms: _249  and  _251
REMARK  103  A    between atoms: _251  and  _252
REMARK  104  A    between atoms: _251  and  _254
REMARK  105  A    between atoms: _254  and  _255
REMARK  106  A    between atoms: _258  and  _260
REMARK  107  A    between atoms: _260  and  _261
REMARK  108  A    between atoms: _263  and  _265
REMARK  109  A    between atoms: _265  and  _266
REMARK  110  A    between atoms: _265  and  _268
REMARK  111  A    between atoms: _268  and  _269
REMARK  112  A    between atoms: _269  and  _270
REMARK  113  A    between atoms: _270  and  _271
REMARK  114  A    between atoms: _280  and  _282
REMARK  115  A    between atoms: _282  and  _283
REMARK  116  A    between atoms: _282  and  _285
REMARK  117  A    between atoms: _285  and  _286
REMARK  118  A    between atoms: _291  and  _293
REMARK  119  A    between atoms: _293  and  _294
REMARK  120  A    between atoms: _293  and  _296
REMARK  121  A    between atoms: _296  and  _297
REMARK  122  A    between atoms: _297  and  _298
REMARK  123  A    between atoms: _298  and  _299
REMARK  124  A    between atoms: _308  and  _310
REMARK  125  A    between atoms: _310  and  _311
REMARK  126  A    between atoms: _310  and  _313
REMARK  127  A    between atoms: _313  and  _314
REMARK  128  A    between atoms: _317  and  _319
REMARK  129  A    between atoms: _319  and  _320
REMARK  130  A    between atoms: _319  and  _322
REMARK  131  A    between atoms: _322  and  _323
REMARK  132  A    between atoms: _326  and  _328
REMARK  133  A    between atoms: _328  and  _329
REMARK  134  A    between atoms: _328  and  _331
REMARK  135  A    between atoms: _331  and  _332
REMARK  136  A    between atoms: _335  and  _337
REMARK  137  A    between atoms: _337  and  _338
REMARK  138  A    between atoms: _337  and  _340
REMARK  139  A    between atoms: _340  and  _341
REMARK  140  A    between atoms: _344  and  _346
REMARK  141  A    between atoms: _346  and  _347
REMARK  142  A    between atoms: _349  and  _351
REMARK  143  A    between atoms: _351  and  _352
REMARK  144  A    between atoms: _355  and  _357
REMARK  145  A    between atoms: _357  and  _358
REMARK  146  A    between atoms: _357  and  _360
REMARK  147  A    between atoms: _360  and  _361
REMARK  148  A    between atoms: _364  and  _366
REMARK  149  A    between atoms: _366  and  _367
REMARK  150  A    between atoms: _366  and  _369
REMARK  151  A    between atoms: _369  and  _370
REMARK  152  A    between atoms: _373  and  _375
REMARK  153  A    between atoms: _375  and  _376
REMARK  154  A    between atoms: _375  and  _378
REMARK  155  A    between atoms: _378  and  _379
REMARK  156  A    between atoms: _382  and  _384
REMARK  157  A    between atoms: _384  and  _385
REMARK  158  A    between atoms: _384  and  _387
REMARK  159  A    between atoms: _390  and  _392
REMARK  160  A    between atoms: _392  and  _393
REMARK  161  A    between atoms: _392  and  _395
REMARK  162  A    between atoms: _395  and  _396
REMARK  163  A    between atoms: _399  and  _401
REMARK  164  A    between atoms: _401  and  _402
REMARK  165  A    between atoms: _401  and  _404
REMARK  166  A    between atoms: _404  and  _405
REMARK  167  A    between atoms: _405  and  _406
REMARK  168  A    between atoms: _406  and  _407
REMARK  169  A    between atoms: _407  and  _408
REMARK  170  A    between atoms: _412  and  _414
REMARK  171  A    between atoms: _414  and  _415
REMARK  172  A    between atoms: _414  and  _417
REMARK  173  A    between atoms: _417  and  _418
REMARK  174  A    between atoms: _418  and  _419
REMARK  175  A    between atoms: _421  and  _423
REMARK  176  A    between atoms: _423  and  _424
REMARK  177  A    between atoms: _423  and  _426
REMARK  178  A    between atoms: _426  and  _427
REMARK  179  A    between atoms: _430  and  _432
REMARK  180  A    between atoms: _432  and  _433
REMARK  181  A    between atoms: _435  and  _437
REMARK  182  A    between atoms: _437  and  _438
REMARK  183  A    between atoms: _440  and  _442
REMARK  184  A    between atoms: _442  and  _443
REMARK  185  A    between atoms: _442  and  _445
REMARK  186  A    between atoms: _445  and  _446
REMARK  187  A    between atoms: _449  and  _451
REMARK  188  A    between atoms: _451  and  _452
REMARK  189  A    between atoms: _454  and  _456
REMARK  190  A    between atoms: _456  and  _457
REMARK  191  A    between atoms: _459  and  _461
REMARK  192  A    between atoms: _461  and  _462
REMARK  193  A    between atoms: _461  and  _464
REMARK  194  A    between atoms: _464  and  _465
REMARK  195  A    between atoms: _471  and  _473
REMARK  196  A    between atoms: _473  and  _474
REMARK  197  A    between atoms: _473  and  _476
REMARK  198  A    between atoms: _476  and  _477
REMARK  199  A    between atoms: _477  and  _478
REMARK  200  A    between atoms: _480  and  _482
REMARK  201  A    between atoms: _482  and  _483
REMARK  202  A    between atoms: _482  and  _485
REMARK  203  A    between atoms: _488  and  _490
REMARK  204  A    between atoms: _490  and  _491
REMARK  205  A    between atoms: _490  and  _493
REMARK  206  A    between atoms: _493  and  _494
REMARK  207  A    between atoms: _497  and  _499
REMARK  208  A    between atoms: _499  and  _500
REMARK  209  A    between atoms: _499  and  _502
REMARK  210  A    between atoms: _502  and  _503
REMARK  211  A    between atoms: _507  and  _508
REMARK  212  A    between atoms: _513  and  _515
REMARK  213  A    between atoms: _515  and  _516
REMARK  214  A    between atoms: _515  and  _518
REMARK  215  A    between atoms: _521  and  _523
REMARK  216  A    between atoms: _523  and  _524
REMARK  217  A    between atoms: _523  and  _526
REMARK  218  A    between atoms: _526  and  _527
REMARK  219  A    between atoms: _532  and  _534
REMARK  220  A    between atoms: _534  and  _535
REMARK  221  A    between atoms: _534  and  _537
REMARK  222  A    between atoms: _537  and  _538
REMARK  223  A    between atoms: _541  and  _543
REMARK  224  A    between atoms: _543  and  _544
REMARK  225  A    between atoms: _543  and  _546
REMARK  226  A    between atoms: _546  and  _547
REMARK  227  A    between atoms: _550  and  _552
REMARK  228  A    between atoms: _552  and  _553
REMARK  229  A    between atoms: _555  and  _557
REMARK  230  A    between atoms: _557  and  _558
REMARK  231  A    between atoms: _557  and  _560
REMARK  232  A    between atoms: _560  and  _561
REMARK  233  A    between atoms: _561  and  _562
REMARK  234  A    between atoms: _562  and  _563
REMARK  235  A    between atoms: _572  and  _574
REMARK  236  A    between atoms: _574  and  _575
REMARK  237  A    between atoms: _574  and  _577
REMARK  238  A    between atoms: _577  and  _578
REMARK                            x       y       z     vdW  Elec       q    Type
REMARK                         _______ _______ _______ _____ _____    ______ ____
ROOT
ATOM      1  O   HOH     1      -9.510 -23.859 -11.698  0.00  0.00    +0.000 OA
ENDROOT
TORSDOF 0
REMARK  Name = ../refined-set-2016/3nu6/3nu6_pocket.pdb
REMARK  238 active torsions:
REMARK  status: ('A' for Active; 'I' for Inactive)
REMARK    1  A    between atoms: _1  and  _3
REMARK    2  A    between atoms: _3  and  _4
REMARK    3  A    between atoms: _3  and  _6
REMARK    4  A    between atoms: _6  and  _7
REMARK    5  A    between atoms: _7  and  _8
REMARK    6  A    between atoms: _8  and  _9
REMARK    7  A    between atoms: _18  and  _20
REMARK    8  A    between atoms: _20  and  _21
REMARK    9  A    between atoms: _20  and  _23
REMARK   10  A    between atoms: _23  and  _24
REMARK   11  A    between atoms: _27  and  _29
REMARK   12  A    between atoms: _29  and  _30
REMARK   13  A    between atoms: _29  and  _32
REMARK   14  A    between atoms: _32  and  _33
REMARK   15  A    between atoms: _36  and  _38
REMARK   16  A    between atoms: _38  and  _39
REMARK   17  A    between atoms: _38  and  _41
REMARK   18  A    between atoms: _41  and  _42
REMARK   19  A    between atoms: _45  and  _47
REMARK   20  A    between atoms: _47  and  _48
REMARK   21  A    between atoms: _47  and  _50
REMARK   22  A    between atoms: _50  and  _51
REMARK   23  A    between atoms: _54  and  _56
REMARK   24  A    between atoms: _56  and  _57
REMARK   25  A    between atoms: _59  and  _61
REMARK   26  A    between atoms: _61  and  _62
REMARK   27  A    between atoms: _65  and  _67
REMARK   28  A    between atoms: _67  and  _68
REMARK   29  A    between atoms: _67  and  _70
REMARK   30  A    between atoms: _70  and  _71
REMARK   31  A    between atoms: _74  and  _76
REMARK   32  A    between atoms: _76  and  _77
REMARK   33  A    between atoms: _76  and  _79
REMARK   34  A    between atoms: _79  and  _80
REMARK   35  A    between atoms: _83  and  _85
REMARK   36  A    between atoms: _85  and  _86
REMARK   37  A    between atoms: _85  and  _88
REMARK   38  A    between atoms: _88  and  _89
REMARK   39  A    between atoms: _92  and  _94
REMARK   40  A    between atoms: _94  and  _95
REMARK   41  A    between atoms: _94  and  _97
REMARK   42  A    between atoms: _100  and  _102
REMARK   43  A    between atoms: _102  and  _103
REMARK   44  A    between atoms: _102  and  _105
REMARK   45  A    between atoms: _106  and  _107
REMARK   46  A    between atoms: _107  and  _108
REMARK   47  A    between atoms: _108  and  _109
REMARK   48  A    between atoms: _113  and  _115
REMARK   49  A    between atoms: _115  and  _116
REMARK   50  A    between atoms: _115  and  _118
REMARK   51  A    between atoms: _118  and  _119
REMARK   52  A    between atoms: _119  and  _120
REMARK   53  A    between atoms: _122  and  _124
REMARK   54  A    between atoms: _124  and  _125
REMARK   55  A    between atoms: _124  and  _127
REMARK   56  A    between atoms: _127  and  _128
REMARK   57  A    between atoms: _131  and  _133
REMARK   58  A    between atoms: _133  and  _134
REMARK   59  A    between atoms: _136  and  _138
REMARK   60  A    between atoms: _138  and  _139
REMARK   61  A    between atoms: _141  and  _143
REMARK   62  A    between atoms: _143  and  _144
REMARK   63  A    between atoms: _143  and  _146
REMARK   64  A    between atoms: _146  and  _147
REMARK   65  A    between atoms: _150  and  _152
REMARK   66  A    between atoms: _152  and  _153
REMARK   67  A    between atoms: _155  and  _157
REMARK   68  A    between atoms: _157  and  _158
REMARK   69  A    between atoms: _160  and  _162
REMARK   70  A    between atoms: _162  and  _163
REMARK   71  A    between atoms: _162  and  _165
REMARK   72  A    between atoms: _165  and  _166
REMARK   73  A    between atoms: _172  and  _174
REMARK   74  A    between atoms: _174  and  _175
REMARK   75  A    between atoms: _174  and  _177
REMARK   76  A    between atoms: _177  and  _178
REMARK   77  A    between atoms: _178  and  _179
REMARK   78  A    between atoms: _181  and  _183
REMARK   79  A    between atoms: _183  and  _184
REMARK   80  A    between atoms: _183  and  _186
REMARK   81  A    between atoms: _189  and  _191
REMARK   82  A    between atoms: _191  and  _192
REMARK   83  A    between atoms: _191  and  _194
REMARK   84  A    between atoms: _194  and  _195
REMARK   85  A    between atoms: _199  and  _200
REMARK   86  A    between atoms: _205  and  _207
REMARK   87  A    between atoms: _207  and  _208
REMARK   88  A    between atoms: _207  and  _210
REMARK   89  A    between atoms: _210  and  _211
REMARK   90  A    between atoms: _215  and  _216
REMARK   91  A    between atoms: _221  and  _223
REMARK   92  A    between atoms: _223  and  _224
REMARK   93  A    between atoms: _223  and  _226
REMARK   94  A    between atoms: _229  and  _231
REMARK   95  A    between atoms: _231  and  _232
REMARK   96  A    between atoms: _231  and  _234
REMARK   97  A    between atoms: _234  and  _235
REMARK   98  A    between atoms: _240  and  _242
REMARK   99  A    between atoms: _242  and  _243
REMARK  100  A    between atoms: _242  and  _245
REMARK  101  A    between atoms: _245  and  _246
REMARK  102  A    between atoms: _249  and  _251
REMARK  103  A    between atoms: _251  and  _252
REMARK  104  A    between atoms: _251  and  _254
REMARK  105  A    between atoms: _254  and  _255
REMARK  106  A    between atoms: _258  and  _260
REMARK  107  A    between atoms: _260  and  _261
REMARK  108  A    between atoms: _263  and  _265
REMARK  109  A    between atoms: _265  and  _266
REMARK  110  A    between atoms: _265  and  _268
REMARK  111  A    between atoms: _268  and  _269
REMARK  112  A    between atoms: _269  and  _270
REMARK  113  A    between atoms: _270  and  _271
REMARK  114  A    between atoms: _280  and  _282
REMARK  115  A    between atoms: _282  and  _283
REMARK  116  A    between atoms: _282  and  _285
REMARK  117  A    between atoms: _285  and  _286
REMARK  118  A    between atoms: _291  and  _293
REMARK  119  A    between atoms: _293  and  _294
REMARK  120  A    between atoms: _293  and  _296
REMARK  121  A    between atoms: _296  and  _297
REMARK  122  A    between atoms: _297  and  _298
REMARK  123  A    between atoms: _298  and  _299
REMARK  124  A    between atoms: _308  and  _310
REMARK  125  A    between atoms: _310  and  _311
REMARK  126  A    between atoms: _310  and  _313
REMARK  127  A    between atoms: _313  and  _314
REMARK  128  A    between atoms: _317  and  _319
REMARK  129  A    between atoms: _319  and  _320
REMARK  130  A    between atoms: _319  and  _322
REMARK  131  A    between atoms: _322  and  _323
REMARK  132  A    between atoms: _326  and  _328
REMARK  133  A    between atoms: _328  and  _329
REMARK  134  A    between atoms: _328  and  _331
REMARK  135  A    between atoms: _331  and  _332
REMARK  136  A    between atoms: _335  and  _337
REMARK  137  A    between atoms: _337  and  _338
REMARK  138  A    between atoms: _337  and  _340
REMARK  139  A    between atoms: _340  and  _341
REMARK  140  A    between atoms: _344  and  _346
REMARK  141  A    between atoms: _346  and  _347
REMARK  142  A    between atoms: _349  and  _351
REMARK  143  A    between atoms: _351  and  _352
REMARK  144  A    between atoms: _355  and  _357
REMARK  145  A    between atoms: _357  and  _358
REMARK  146  A    between atoms: _357  and  _360
REMARK  147  A    between atoms: _360  and  _361
REMARK  148  A    between atoms: _364  and  _366
REMARK  149  A    between atoms: _366  and  _367
REMARK  150  A    between atoms: _366  and  _369
REMARK  151  A    between atoms: _369  and  _370
REMARK  152  A    between atoms: _373  and  _375
REMARK  153  A    between atoms: _375  and  _376
REMARK  154  A    between atoms: _375  and  _378
REMARK  155  A    between atoms: _378  and  _379
REMARK  156  A    between atoms: _382  and  _384
REMARK  157  A    between atoms: _384  and  _385
REMARK  158  A    between atoms: _384  and  _387
REMARK  159  A    between atoms: _390  and  _392
REMARK  160  A    between atoms: _392  and  _393
REMARK  161  A    between atoms: _392  and  _395
REMARK  162  A    between atoms: _395  and  _396
REMARK  163  A    between atoms: _399  and  _401
REMARK  164  A    between atoms: _401  and  _402
REMARK  165  A    between atoms: _401  and  _404
REMARK  166  A    between atoms: _404  and  _405
REMARK  167  A    between atoms: _405  and  _406
REMARK  168  A    between atoms: _406  and  _407
REMARK  169  A    between atoms: _407  and  _408
REMARK  170  A    between atoms: _412  and  _414
REMARK  171  A    between atoms: _414  and  _415
REMARK  172  A    between atoms: _414  and  _417
REMARK  173  A    between atoms: _417  and  _418
REMARK  174  A    between atoms: _418  and  _419
REMARK  175  A    between atoms: _421  and  _423
REMARK  176  A    between atoms: _423  and  _424
REMARK  177  A    between atoms: _423  and  _426
REMARK  178  A    between atoms: _426  and  _427
REMARK  179  A    between atoms: _430  and  _432
REMARK  180  A    between atoms: _432  and  _433
REMARK  181  A    between atoms: _435  and  _437
REMARK  182  A    between atoms: _437  and  _438
REMARK  183  A    between atoms: _440  and  _442
REMARK  184  A    between atoms: _442  and  _443
REMARK  185  A    between atoms: _442  and  _445
REMARK  186  A    between atoms: _445  and  _446
REMARK  187  A    between atoms: _449  and  _451
REMARK  188  A    between atoms: _451  and  _452
REMARK  189  A    between atoms: _454  and  _456
REMARK  190  A    between atoms: _456  and  _457
REMARK  191  A    between atoms: _459  and  _461
REMARK  192  A    between atoms: _461  and  _462
REMARK  193  A    between atoms: _461  and  _464
REMARK  194  A    between atoms: _464  and  _465
REMARK  195  A    between atoms: _471  and  _473
REMARK  196  A    between atoms: _473  and  _474
REMARK  197  A    between atoms: _473  and  _476
REMARK  198  A    between atoms: _476  and  _477
REMARK  199  A    between atoms: _477  and  _478
REMARK  200  A    between atoms: _480  and  _482
REMARK  201  A    between atoms: _482  and  _483
REMARK  202  A    between atoms: _482  and  _485
REMARK  203  A    between atoms: _488  and  _490
REMARK  204  A    between atoms: _490  and  _491
REMARK  205  A    between atoms: _490  and  _493
REMARK  206  A    between atoms: _493  and  _494
REMARK  207  A    between atoms: _497  and  _499
REMARK  208  A    between atoms: _499  and  _500
REMARK  209  A    between atoms: _499  and  _502
REMARK  210  A    between atoms: _502  and  _503
REMARK  211  A    between atoms: _507  and  _508
REMARK  212  A    between atoms: _513  and  _515
REMARK  213  A    between atoms: _515  and  _516
REMARK  214  A    between atoms: _515  and  _518
REMARK  215  A    between atoms: _521  and  _523
REMARK  216  A    between atoms: _523  and  _524
REMARK  217  A    between atoms: _523  and  _526
REMARK  218  A    between atoms: _526  and  _527
REMARK  219  A    between atoms: _532  and  _534
REMARK  220  A    between atoms: _534  and  _535
REMARK  221  A    between atoms: _534  and  _537
REMARK  222  A    between atoms: _537  and  _538
REMARK  223  A    between atoms: _541  and  _543
REMARK  224  A    between atoms: _543  and  _544
REMARK  225  A    between atoms: _543  and  _546
REMARK  226  A    between atoms: _546  and  _547
REMARK  227  A    between atoms: _550  and  _552
REMARK  228  A    between atoms: _552  and  _553
REMARK  229  A    between atoms: _555  and  _557
REMARK  230  A    between atoms: _557  and  _558
REMARK  231  A    between atoms: _557  and  _560
REMARK  232  A    between atoms: _560  and  _561
REMARK  233  A    between atoms: _561  and  _562
REMARK  234  A    between atoms: _562  and  _563
REMARK  235  A    between atoms: _572  and  _574
REMARK  236  A    between atoms: _574  and  _575
REMARK  237  A    between atoms: _574  and  _577
REMARK  238  A    between atoms: _577  and  _578
REMARK                            x       y       z     vdW  Elec       q    Type
REMARK                         _______ _______ _______ _____ _____    ______ ____
ROOT
ATOM      1  O   HOH     1     -26.758 -11.019 -15.722  0.00  0.00    +0.000 OA
ENDROOT
TORSDOF 0
REMARK  Name = ../refined-set-2016/3nu6/3nu6_pocket.pdb
REMARK  238 active torsions:
REMARK  status: ('A' for Active; 'I' for Inactive)
REMARK    1  A    between atoms: _1  and  _3
REMARK    2  A    between atoms: _3  and  _4
REMARK    3  A    between atoms: _3  and  _6
REMARK    4  A    between atoms: _6  and  _7
REMARK    5  A    between atoms: _7  and  _8
REMARK    6  A    between atoms: _8  and  _9
REMARK    7  A    between atoms: _18  and  _20
REMARK    8  A    between atoms: _20  and  _21
REMARK    9  A    between atoms: _20  and  _23
REMARK   10  A    between atoms: _23  and  _24
REMARK   11  A    between atoms: _27  and  _29
REMARK   12  A    between atoms: _29  and  _30
REMARK   13  A    between atoms: _29  and  _32
REMARK   14  A    between atoms: _32  and  _33
REMARK   15  A    between atoms: _36  and  _38
REMARK   16  A    between atoms: _38  and  _39
REMARK   17  A    between atoms: _38  and  _41
REMARK   18  A    between atoms: _41  and  _42
REMARK   19  A    between atoms: _45  and  _47
REMARK   20  A    between atoms: _47  and  _48
REMARK   21  A    between atoms: _47  and  _50
REMARK   22  A    between atoms: _50  and  _51
REMARK   23  A    between atoms: _54  and  _56
REMARK   24  A    between atoms: _56  and  _57
REMARK   25  A    between atoms: _59  and  _61
REMARK   26  A    between atoms: _61  and  _62
REMARK   27  A    between atoms: _65  and  _67
REMARK   28  A    between atoms: _67  and  _68
REMARK   29  A    between atoms: _67  and  _70
REMARK   30  A    between atoms: _70  and  _71
REMARK   31  A    between atoms: _74  and  _76
REMARK   32  A    between atoms: _76  and  _77
REMARK   33  A    between atoms: _76  and  _79
REMARK   34  A    between atoms: _79  and  _80
REMARK   35  A    between atoms: _83  and  _85
REMARK   36  A    between atoms: _85  and  _86
REMARK   37  A    between atoms: _85  and  _88
REMARK   38  A    between atoms: _88  and  _89
REMARK   39  A    between atoms: _92  and  _94
REMARK   40  A    between atoms: _94  and  _95
REMARK   41  A    between atoms: _94  and  _97
REMARK   42  A    between atoms: _100  and  _102
REMARK   43  A    between atoms: _102  and  _103
REMARK   44  A    between atoms: _102  and  _105
REMARK   45  A    between atoms: _106  and  _107
REMARK   46  A    between atoms: _107  and  _108
REMARK   47  A    between atoms: _108  and  _109
REMARK   48  A    between atoms: _113  and  _115
REMARK   49  A    between atoms: _115  and  _116
REMARK   50  A    between atoms: _115  and  _118
REMARK   51  A    between atoms: _118  and  _119
REMARK   52  A    between atoms: _119  and  _120
REMARK   53  A    between atoms: _122  and  _124
REMARK   54  A    between atoms: _124  and  _125
REMARK   55  A    between atoms: _124  and  _127
REMARK   56  A    between atoms: _127  and  _128
REMARK   57  A    between atoms: _131  and  _133
REMARK   58  A    between atoms: _133  and  _134
REMARK   59  A    between atoms: _136  and  _138
REMARK   60  A    between atoms: _138  and  _139
REMARK   61  A    between atoms: _141  and  _143
REMARK   62  A    between atoms: _143  and  _144
REMARK   63  A    between atoms: _143  and  _146
REMARK   64  A    between atoms: _146  and  _147
REMARK   65  A    between atoms: _150  and  _152
REMARK   66  A    between atoms: _152  and  _153
REMARK   67  A    between atoms: _155  and  _157
REMARK   68  A    between atoms: _157  and  _158
REMARK   69  A    between atoms: _160  and  _162
REMARK   70  A    between atoms: _162  and  _163
REMARK   71  A    between atoms: _162  and  _165
REMARK   72  A    between atoms: _165  and  _166
REMARK   73  A    between atoms: _172  and  _174
REMARK   74  A    between atoms: _174  and  _175
REMARK   75  A    between atoms: _174  and  _177
REMARK   76  A    between atoms: _177  and  _178
REMARK   77  A    between atoms: _178  and  _179
REMARK   78  A    between atoms: _181  and  _183
REMARK   79  A    between atoms: _183  and  _184
REMARK   80  A    between atoms: _183  and  _186
REMARK   81  A    between atoms: _189  and  _191
REMARK   82  A    between atoms: _191  and  _192
REMARK   83  A    between atoms: _191  and  _194
REMARK   84  A    between atoms: _194  and  _195
REMARK   85  A    between atoms: _199  and  _200
REMARK   86  A    between atoms: _205  and  _207
REMARK   87  A    between atoms: _207  and  _208
REMARK   88  A    between atoms: _207  and  _210
REMARK   89  A    between atoms: _210  and  _211
REMARK   90  A    between atoms: _215  and  _216
REMARK   91  A    between atoms: _221  and  _223
REMARK   92  A    between atoms: _223  and  _224
REMARK   93  A    between atoms: _223  and  _226
REMARK   94  A    between atoms: _229  and  _231
REMARK   95  A    between atoms: _231  and  _232
REMARK   96  A    between atoms: _231  and  _234
REMARK   97  A    between atoms: _234  and  _235
REMARK   98  A    between atoms: _240  and  _242
REMARK   99  A    between atoms: _242  and  _243
REMARK  100  A    between atoms: _242  and  _245
REMARK  101  A    between atoms: _245  and  _246
REMARK  102  A    between atoms: _249  and  _251
REMARK  103  A    between atoms: _251  and  _252
REMARK  104  A    between atoms: _251  and  _254
REMARK  105  A    between atoms: _254  and  _255
REMARK  106  A    between atoms: _258  and  _260
REMARK  107  A    between atoms: _260  and  _261
REMARK  108  A    between atoms: _263  and  _265
REMARK  109  A    between atoms: _265  and  _266
REMARK  110  A    between atoms: _265  and  _268
REMARK  111  A    between atoms: _268  and  _269
REMARK  112  A    between atoms: _269  and  _270
REMARK  113  A    between atoms: _270  and  _271
REMARK  114  A    between atoms: _280  and  _282
REMARK  115  A    between atoms: _282  and  _283
REMARK  116  A    between atoms: _282  and  _285
REMARK  117  A    between atoms: _285  and  _286
REMARK  118  A    between atoms: _291  and  _293
REMARK  119  A    between atoms: _293  and  _294
REMARK  120  A    between atoms: _293  and  _296
REMARK  121  A    between atoms: _296  and  _297
REMARK  122  A    between atoms: _297  and  _298
REMARK  123  A    between atoms: _298  and  _299
REMARK  124  A    between atoms: _308  and  _310
REMARK  125  A    between atoms: _310  and  _311
REMARK  126  A    between atoms: _310  and  _313
REMARK  127  A    between atoms: _313  and  _314
REMARK  128  A    between atoms: _317  and  _319
REMARK  129  A    between atoms: _319  and  _320
REMARK  130  A    between atoms: _319  and  _322
REMARK  131  A    between atoms: _322  and  _323
REMARK  132  A    between atoms: _326  and  _328
REMARK  133  A    between atoms: _328  and  _329
REMARK  134  A    between atoms: _328  and  _331
REMARK  135  A    between atoms: _331  and  _332
REMARK  136  A    between atoms: _335  and  _337
REMARK  137  A    between atoms: _337  and  _338
REMARK  138  A    between atoms: _337  and  _340
REMARK  139  A    between atoms: _340  and  _341
REMARK  140  A    between atoms: _344  and  _346
REMARK  141  A    between atoms: _346  and  _347
REMARK  142  A    between atoms: _349  and  _351
REMARK  143  A    between atoms: _351  and  _352
REMARK  144  A    between atoms: _355  and  _357
REMARK  145  A    between atoms: _357  and  _358
REMARK  146  A    between atoms: _357  and  _360
REMARK  147  A    between atoms: _360  and  _361
REMARK  148  A    between atoms: _364  and  _366
REMARK  149  A    between atoms: _366  and  _367
REMARK  150  A    between atoms: _366  and  _369
REMARK  151  A    between atoms: _369  and  _370
REMARK  152  A    between atoms: _373  and  _375
REMARK  153  A    between atoms: _375  and  _376
REMARK  154  A    between atoms: _375  and  _378
REMARK  155  A    between atoms: _378  and  _379
REMARK  156  A    between atoms: _382  and  _384
REMARK  157  A    between atoms: _384  and  _385
REMARK  158  A    between atoms: _384  and  _387
REMARK  159  A    between atoms: _390  and  _392
REMARK  160  A    between atoms: _392  and  _393
REMARK  161  A    between atoms: _392  and  _395
REMARK  162  A    between atoms: _395  and  _396
REMARK  163  A    between atoms: _399  and  _401
REMARK  164  A    between atoms: _401  and  _402
REMARK  165  A    between atoms: _401  and  _404
REMARK  166  A    between atoms: _404  and  _405
REMARK  167  A    between atoms: _405  and  _406
REMARK  168  A    between atoms: _406  and  _407
REMARK  169  A    between atoms: _407  and  _408
REMARK  170  A    between atoms: _412  and  _414
REMARK  171  A    between atoms: _414  and  _415
REMARK  172  A    between atoms: _414  and  _417
REMARK  173  A    between atoms: _417  and  _418
REMARK  174  A    between atoms: _418  and  _419
REMARK  175  A    between atoms: _421  and  _423
REMARK  176  A    between atoms: _423  and  _424
REMARK  177  A    between atoms: _423  and  _426
REMARK  178  A    between atoms: _426  and  _427
REMARK  179  A    between atoms: _430  and  _432
REMARK  180  A    between atoms: _432  and  _433
REMARK  181  A    between atoms: _435  and  _437
REMARK  182  A    between atoms: _437  and  _438
REMARK  183  A    between atoms: _440  and  _442
REMARK  184  A    between atoms: _442  and  _443
REMARK  185  A    between atoms: _442  and  _445
REMARK  186  A    between atoms: _445  and  _446
REMARK  187  A    between atoms: _449  and  _451
REMARK  188  A    between atoms: _451  and  _452
REMARK  189  A    between atoms: _454  and  _456
REMARK  190  A    between atoms: _456  and  _457
REMARK  191  A    between atoms: _459  and  _461
REMARK  192  A    between atoms: _461  and  _462
REMARK  193  A    between atoms: _461  and  _464
REMARK  194  A    between atoms: _464  and  _465
REMARK  195  A    between atoms: _471  and  _473
REMARK  196  A    between atoms: _473  and  _474
REMARK  197  A    between atoms: _473  and  _476
REMARK  198  A    between atoms: _476  and  _477
REMARK  199  A    between atoms: _477  and  _478
REMARK  200  A    between atoms: _480  and  _482
REMARK  201  A    between atoms: _482  and  _483
REMARK  202  A    between atoms: _482  and  _485
REMARK  203  A    between atoms: _488  and  _490
REMARK  204  A    between atoms: _490  and  _491
REMARK  205  A    between atoms: _490  and  _493
REMARK  206  A    between atoms: _493  and  _494
REMARK  207  A    between atoms: _497  and  _499
REMARK  208  A    between atoms: _499  and  _500
REMARK  209  A    between atoms: _499  and  _502
REMARK  210  A    between atoms: _502  and  _503
REMARK  211  A    between atoms: _507  and  _508
REMARK  212  A    between atoms: _513  and  _515
REMARK  213  A    between atoms: _515  and  _516
REMARK  214  A    between atoms: _515  and  _518
REMARK  215  A    between atoms: _521  and  _523
REMARK  216  A    between atoms: _523  and  _524
REMARK  217  A    between atoms: _523  and  _526
REMARK  218  A    between atoms: _526  and  _527
REMARK  219  A    between atoms: _532  and  _534
REMARK  220  A    between atoms: _534  and  _535
REMARK  221  A    between atoms: _534  and  _537
REMARK  222  A    between atoms: _537  and  _538
REMARK  223  A    between atoms: _541  and  _543
REMARK  224  A    between atoms: _543  and  _544
REMARK  225  A    between atoms: _543  and  _546
REMARK  226  A    between atoms: _546  and  _547
REMARK  227  A    between atoms: _550  and  _552
REMARK  228  A    between atoms: _552  and  _553
REMARK  229  A    between atoms: _555  and  _557
REMARK  230  A    between atoms: _557  and  _558
REMARK  231  A    between atoms: _557  and  _560
REMARK  232  A    between atoms: _560  and  _561
REMARK  233  A    between atoms: _561  and  _562
REMARK  234  A    between atoms: _562  and  _563
REMARK  235  A    between atoms: _572  and  _574
REMARK  236  A    between atoms: _574  and  _575
REMARK  237  A    between atoms: _574  and  _577
REMARK  238  A    between atoms: _577  and  _578
REMARK                            x       y       z     vdW  Elec       q    Type
REMARK                         _______ _______ _______ _____ _____    ______ ____
ROOT
ATOM      1  O   HOH     1      -7.474 -19.042 -18.181  0.00  0.00    +0.000 OA
ENDROOT
TORSDOF 0
REMARK  Name = ../refined-set-2016/3nu6/3nu6_pocket.pdb
REMARK  238 active torsions:
REMARK  status: ('A' for Active; 'I' for Inactive)
REMARK    1  A    between atoms: _1  and  _3
REMARK    2  A    between atoms: _3  and  _4
REMARK    3  A    between atoms: _3  and  _6
REMARK    4  A    between atoms: _6  and  _7
REMARK    5  A    between atoms: _7  and  _8
REMARK    6  A    between atoms: _8  and  _9
REMARK    7  A    between atoms: _18  and  _20
REMARK    8  A    between atoms: _20  and  _21
REMARK    9  A    between atoms: _20  and  _23
REMARK   10  A    between atoms: _23  and  _24
REMARK   11  A    between atoms: _27  and  _29
REMARK   12  A    between atoms: _29  and  _30
REMARK   13  A    between atoms: _29  and  _32
REMARK   14  A    between atoms: _32  and  _33
REMARK   15  A    between atoms: _36  and  _38
REMARK   16  A    between atoms: _38  and  _39
REMARK   17  A    between atoms: _38  and  _41
REMARK   18  A    between atoms: _41  and  _42
REMARK   19  A    between atoms: _45  and  _47
REMARK   20  A    between atoms: _47  and  _48
REMARK   21  A    between atoms: _47  and  _50
REMARK   22  A    between atoms: _50  and  _51
REMARK   23  A    between atoms: _54  and  _56
REMARK   24  A    between atoms: _56  and  _57
REMARK   25  A    between atoms: _59  and  _61
REMARK   26  A    between atoms: _61  and  _62
REMARK   27  A    between atoms: _65  and  _67
REMARK   28  A    between atoms: _67  and  _68
REMARK   29  A    between atoms: _67  and  _70
REMARK   30  A    between atoms: _70  and  _71
REMARK   31  A    between atoms: _74  and  _76
REMARK   32  A    between atoms: _76  and  _77
REMARK   33  A    between atoms: _76  and  _79
REMARK   34  A    between atoms: _79  and  _80
REMARK   35  A    between atoms: _83  and  _85
REMARK   36  A    between atoms: _85  and  _86
REMARK   37  A    between atoms: _85  and  _88
REMARK   38  A    between atoms: _88  and  _89
REMARK   39  A    between atoms: _92  and  _94
REMARK   40  A    between atoms: _94  and  _95
REMARK   41  A    between atoms: _94  and  _97
REMARK   42  A    between atoms: _100  and  _102
REMARK   43  A    between atoms: _102  and  _103
REMARK   44  A    between atoms: _102  and  _105
REMARK   45  A    between atoms: _106  and  _107
REMARK   46  A    between atoms: _107  and  _108
REMARK   47  A    between atoms: _108  and  _109
REMARK   48  A    between atoms: _113  and  _115
REMARK   49  A    between atoms: _115  and  _116
REMARK   50  A    between atoms: _115  and  _118
REMARK   51  A    between atoms: _118  and  _119
REMARK   52  A    between atoms: _119  and  _120
REMARK   53  A    between atoms: _122  and  _124
REMARK   54  A    between atoms: _124  and  _125
REMARK   55  A    between atoms: _124  and  _127
REMARK   56  A    between atoms: _127  and  _128
REMARK   57  A    between atoms: _131  and  _133
REMARK   58  A    between atoms: _133  and  _134
REMARK   59  A    between atoms: _136  and  _138
REMARK   60  A    between atoms: _138  and  _139
REMARK   61  A    between atoms: _141  and  _143
REMARK   62  A    between atoms: _143  and  _144
REMARK   63  A    between atoms: _143  and  _146
REMARK   64  A    between atoms: _146  and  _147
REMARK   65  A    between atoms: _150  and  _152
REMARK   66  A    between atoms: _152  and  _153
REMARK   67  A    between atoms: _155  and  _157
REMARK   68  A    between atoms: _157  and  _158
REMARK   69  A    between atoms: _160  and  _162
REMARK   70  A    between atoms: _162  and  _163
REMARK   71  A    between atoms: _162  and  _165
REMARK   72  A    between atoms: _165  and  _166
REMARK   73  A    between atoms: _172  and  _174
REMARK   74  A    between atoms: _174  and  _175
REMARK   75  A    between atoms: _174  and  _177
REMARK   76  A    between atoms: _177  and  _178
REMARK   77  A    between atoms: _178  and  _179
REMARK   78  A    between atoms: _181  and  _183
REMARK   79  A    between atoms: _183  and  _184
REMARK   80  A    between atoms: _183  and  _186
REMARK   81  A    between atoms: _189  and  _191
REMARK   82  A    between atoms: _191  and  _192
REMARK   83  A    between atoms: _191  and  _194
REMARK   84  A    between atoms: _194  and  _195
REMARK   85  A    between atoms: _199  and  _200
REMARK   86  A    between atoms: _205  and  _207
REMARK   87  A    between atoms: _207  and  _208
REMARK   88  A    between atoms: _207  and  _210
REMARK   89  A    between atoms: _210  and  _211
REMARK   90  A    between atoms: _215  and  _216
REMARK   91  A    between atoms: _221  and  _223
REMARK   92  A    between atoms: _223  and  _224
REMARK   93  A    between atoms: _223  and  _226
REMARK   94  A    between atoms: _229  and  _231
REMARK   95  A    between atoms: _231  and  _232
REMARK   96  A    between atoms: _231  and  _234
REMARK   97  A    between atoms: _234  and  _235
REMARK   98  A    between atoms: _240  and  _242
REMARK   99  A    between atoms: _242  and  _243
REMARK  100  A    between atoms: _242  and  _245
REMARK  101  A    between atoms: _245  and  _246
REMARK  102  A    between atoms: _249  and  _251
REMARK  103  A    between atoms: _251  and  _252
REMARK  104  A    between atoms: _251  and  _254
REMARK  105  A    between atoms: _254  and  _255
REMARK  106  A    between atoms: _258  and  _260
REMARK  107  A    between atoms: _260  and  _261
REMARK  108  A    between atoms: _263  and  _265
REMARK  109  A    between atoms: _265  and  _266
REMARK  110  A    between atoms: _265  and  _268
REMARK  111  A    between atoms: _268  and  _269
REMARK  112  A    between atoms: _269  and  _270
REMARK  113  A    between atoms: _270  and  _271
REMARK  114  A    between atoms: _280  and  _282
REMARK  115  A    between atoms: _282  and  _283
REMARK  116  A    between atoms: _282  and  _285
REMARK  117  A    between atoms: _285  and  _286
REMARK  118  A    between atoms: _291  and  _293
REMARK  119  A    between atoms: _293  and  _294
REMARK  120  A    between atoms: _293  and  _296
REMARK  121  A    between atoms: _296  and  _297
REMARK  122  A    between atoms: _297  and  _298
REMARK  123  A    between atoms: _298  and  _299
REMARK  124  A    between atoms: _308  and  _310
REMARK  125  A    between atoms: _310  and  _311
REMARK  126  A    between atoms: _310  and  _313
REMARK  127  A    between atoms: _313  and  _314
REMARK  128  A    between atoms: _317  and  _319
REMARK  129  A    between atoms: _319  and  _320
REMARK  130  A    between atoms: _319  and  _322
REMARK  131  A    between atoms: _322  and  _323
REMARK  132  A    between atoms: _326  and  _328
REMARK  133  A    between atoms: _328  and  _329
REMARK  134  A    between atoms: _328  and  _331
REMARK  135  A    between atoms: _331  and  _332
REMARK  136  A    between atoms: _335  and  _337
REMARK  137  A    between atoms: _337  and  _338
REMARK  138  A    between atoms: _337  and  _340
REMARK  139  A    between atoms: _340  and  _341
REMARK  140  A    between atoms: _344  and  _346
REMARK  141  A    between atoms: _346  and  _347
REMARK  142  A    between atoms: _349  and  _351
REMARK  143  A    between atoms: _351  and  _352
REMARK  144  A    between atoms: _355  and  _357
REMARK  145  A    between atoms: _357  and  _358
REMARK  146  A    between atoms: _357  and  _360
REMARK  147  A    between atoms: _360  and  _361
REMARK  148  A    between atoms: _364  and  _366
REMARK  149  A    between atoms: _366  and  _367
REMARK  150  A    between atoms: _366  and  _369
REMARK  151  A    between atoms: _369  and  _370
REMARK  152  A    between atoms: _373  and  _375
REMARK  153  A    between atoms: _375  and  _376
REMARK  154  A    between atoms: _375  and  _378
REMARK  155  A    between atoms: _378  and  _379
REMARK  156  A    between atoms: _382  and  _384
REMARK  157  A    between atoms: _384  and  _385
REMARK  158  A    between atoms: _384  and  _387
REMARK  159  A    between atoms: _390  and  _392
REMARK  160  A    between atoms: _392  and  _393
REMARK  161  A    between atoms: _392  and  _395
REMARK  162  A    between atoms: _395  and  _396
REMARK  163  A    between atoms: _399  and  _401
REMARK  164  A    between atoms: _401  and  _402
REMARK  165  A    between atoms: _401  and  _404
REMARK  166  A    between atoms: _404  and  _405
REMARK  167  A    between atoms: _405  and  _406
REMARK  168  A    between atoms: _406  and  _407
REMARK  169  A    between atoms: _407  and  _408
REMARK  170  A    between atoms: _412  and  _414
REMARK  171  A    between atoms: _414  and  _415
REMARK  172  A    between atoms: _414  and  _417
REMARK  173  A    between atoms: _417  and  _418
REMARK  174  A    between atoms: _418  and  _419
REMARK  175  A    between atoms: _421  and  _423
REMARK  176  A    between atoms: _423  and  _424
REMARK  177  A    between atoms: _423  and  _426
REMARK  178  A    between atoms: _426  and  _427
REMARK  179  A    between atoms: _430  and  _432
REMARK  180  A    between atoms: _432  and  _433
REMARK  181  A    between atoms: _435  and  _437
REMARK  182  A    between atoms: _437  and  _438
REMARK  183  A    between atoms: _440  and  _442
REMARK  184  A    between atoms: _442  and  _443
REMARK  185  A    between atoms: _442  and  _445
REMARK  186  A    between atoms: _445  and  _446
REMARK  187  A    between atoms: _449  and  _451
REMARK  188  A    between atoms: _451  and  _452
REMARK  189  A    between atoms: _454  and  _456
REMARK  190  A    between atoms: _456  and  _457
REMARK  191  A    between atoms: _459  and  _461
REMARK  192  A    between atoms: _461  and  _462
REMARK  193  A    between atoms: _461  and  _464
REMARK  194  A    between atoms: _464  and  _465
REMARK  195  A    between atoms: _471  and  _473
REMARK  196  A    between atoms: _473  and  _474
REMARK  197  A    between atoms: _473  and  _476
REMARK  198  A    between atoms: _476  and  _477
REMARK  199  A    between atoms: _477  and  _478
REMARK  200  A    between atoms: _480  and  _482
REMARK  201  A    between atoms: _482  and  _483
REMARK  202  A    between atoms: _482  and  _485
REMARK  203  A    between atoms: _488  and  _490
REMARK  204  A    between atoms: _490  and  _491
REMARK  205  A    between atoms: _490  and  _493
REMARK  206  A    between atoms: _493  and  _494
REMARK  207  A    between atoms: _497  and  _499
REMARK  208  A    between atoms: _499  and  _500
REMARK  209  A    between atoms: _499  and  _502
REMARK  210  A    between atoms: _502  and  _503
REMARK  211  A    between atoms: _507  and  _508
REMARK  212  A    between atoms: _513  and  _515
REMARK  213  A    between atoms: _515  and  _516
REMARK  214  A    between atoms: _515  and  _518
REMARK  215  A    between atoms: _521  and  _523
REMARK  216  A    between atoms: _523  and  _524
REMARK  217  A    between atoms: _523  and  _526
REMARK  218  A    between atoms: _526  and  _527
REMARK  219  A    between atoms: _532  and  _534
REMARK  220  A    between atoms: _534  and  _535
REMARK  221  A    between atoms: _534  and  _537
REMARK  222  A    between atoms: _537  and  _538
REMARK  223  A    between atoms: _541  and  _543
REMARK  224  A    between atoms: _543  and  _544
REMARK  225  A    between atoms: _543  and  _546
REMARK  226  A    between atoms: _546  and  _547
REMARK  227  A    between atoms: _550  and  _552
REMARK  228  A    between atoms: _552  and  _553
REMARK  229  A    between atoms: _555  and  _557
REMARK  230  A    between atoms: _557  and  _558
REMARK  231  A    between atoms: _557  and  _560
REMARK  232  A    between atoms: _560  and  _561
REMARK  233  A    between atoms: _561  and  _562
REMARK  234  A    between atoms: _562  and  _563
REMARK  235  A    between atoms: _572  and  _574
REMARK  236  A    between atoms: _574  and  _575
REMARK  237  A    between atoms: _574  and  _577
REMARK  238  A    between atoms: _577  and  _578
REMARK                            x       y       z     vdW  Elec       q    Type
REMARK                         _______ _______ _______ _____ _____    ______ ____
ROOT
ATOM      1  O   HOH     1      -9.071 -26.623 -26.601  0.00  0.00    +0.000 OA
ENDROOT
TORSDOF 0
REMARK  Name = ../refined-set-2016/3nu6/3nu6_pocket.pdb
REMARK  238 active torsions:
REMARK  status: ('A' for Active; 'I' for Inactive)
REMARK    1  A    between atoms: _1  and  _3
REMARK    2  A    between atoms: _3  and  _4
REMARK    3  A    between atoms: _3  and  _6
REMARK    4  A    between atoms: _6  and  _7
REMARK    5  A    between atoms: _7  and  _8
REMARK    6  A    between atoms: _8  and  _9
REMARK    7  A    between atoms: _18  and  _20
REMARK    8  A    between atoms: _20  and  _21
REMARK    9  A    between atoms: _20  and  _23
REMARK   10  A    between atoms: _23  and  _24
REMARK   11  A    between atoms: _27  and  _29
REMARK   12  A    between atoms: _29  and  _30
REMARK   13  A    between atoms: _29  and  _32
REMARK   14  A    between atoms: _32  and  _33
REMARK   15  A    between atoms: _36  and  _38
REMARK   16  A    between atoms: _38  and  _39
REMARK   17  A    between atoms: _38  and  _41
REMARK   18  A    between atoms: _41  and  _42
REMARK   19  A    between atoms: _45  and  _47
REMARK   20  A    between atoms: _47  and  _48
REMARK   21  A    between atoms: _47  and  _50
REMARK   22  A    between atoms: _50  and  _51
REMARK   23  A    between atoms: _54  and  _56
REMARK   24  A    between atoms: _56  and  _57
REMARK   25  A    between atoms: _59  and  _61
REMARK   26  A    between atoms: _61  and  _62
REMARK   27  A    between atoms: _65  and  _67
REMARK   28  A    between atoms: _67  and  _68
REMARK   29  A    between atoms: _67  and  _70
REMARK   30  A    between atoms: _70  and  _71
REMARK   31  A    between atoms: _74  and  _76
REMARK   32  A    between atoms: _76  and  _77
REMARK   33  A    between atoms: _76  and  _79
REMARK   34  A    between atoms: _79  and  _80
REMARK   35  A    between atoms: _83  and  _85
REMARK   36  A    between atoms: _85  and  _86
REMARK   37  A    between atoms: _85  and  _88
REMARK   38  A    between atoms: _88  and  _89
REMARK   39  A    between atoms: _92  and  _94
REMARK   40  A    between atoms: _94  and  _95
REMARK   41  A    between atoms: _94  and  _97
REMARK   42  A    between atoms: _100  and  _102
REMARK   43  A    between atoms: _102  and  _103
REMARK   44  A    between atoms: _102  and  _105
REMARK   45  A    between atoms: _106  and  _107
REMARK   46  A    between atoms: _107  and  _108
REMARK   47  A    between atoms: _108  and  _109
REMARK   48  A    between atoms: _113  and  _115
REMARK   49  A    between atoms: _115  and  _116
REMARK   50  A    between atoms: _115  and  _118
REMARK   51  A    between atoms: _118  and  _119
REMARK   52  A    between atoms: _119  and  _120
REMARK   53  A    between atoms: _122  and  _124
REMARK   54  A    between atoms: _124  and  _125
REMARK   55  A    between atoms: _124  and  _127
REMARK   56  A    between atoms: _127  and  _128
REMARK   57  A    between atoms: _131  and  _133
REMARK   58  A    between atoms: _133  and  _134
REMARK   59  A    between atoms: _136  and  _138
REMARK   60  A    between atoms: _138  and  _139
REMARK   61  A    between atoms: _141  and  _143
REMARK   62  A    between atoms: _143  and  _144
REMARK   63  A    between atoms: _143  and  _146
REMARK   64  A    between atoms: _146  and  _147
REMARK   65  A    between atoms: _150  and  _152
REMARK   66  A    between atoms: _152  and  _153
REMARK   67  A    between atoms: _155  and  _157
REMARK   68  A    between atoms: _157  and  _158
REMARK   69  A    between atoms: _160  and  _162
REMARK   70  A    between atoms: _162  and  _163
REMARK   71  A    between atoms: _162  and  _165
REMARK   72  A    between atoms: _165  and  _166
REMARK   73  A    between atoms: _172  and  _174
REMARK   74  A    between atoms: _174  and  _175
REMARK   75  A    between atoms: _174  and  _177
REMARK   76  A    between atoms: _177  and  _178
REMARK   77  A    between atoms: _178  and  _179
REMARK   78  A    between atoms: _181  and  _183
REMARK   79  A    between atoms: _183  and  _184
REMARK   80  A    between atoms: _183  and  _186
REMARK   81  A    between atoms: _189  and  _191
REMARK   82  A    between atoms: _191  and  _192
REMARK   83  A    between atoms: _191  and  _194
REMARK   84  A    between atoms: _194  and  _195
REMARK   85  A    between atoms: _199  and  _200
REMARK   86  A    between atoms: _205  and  _207
REMARK   87  A    between atoms: _207  and  _208
REMARK   88  A    between atoms: _207  and  _210
REMARK   89  A    between atoms: _210  and  _211
REMARK   90  A    between atoms: _215  and  _216
REMARK   91  A    between atoms: _221  and  _223
REMARK   92  A    between atoms: _223  and  _224
REMARK   93  A    between atoms: _223  and  _226
REMARK   94  A    between atoms: _229  and  _231
REMARK   95  A    between atoms: _231  and  _232
REMARK   96  A    between atoms: _231  and  _234
REMARK   97  A    between atoms: _234  and  _235
REMARK   98  A    between atoms: _240  and  _242
REMARK   99  A    between atoms: _242  and  _243
REMARK  100  A    between atoms: _242  and  _245
REMARK  101  A    between atoms: _245  and  _246
REMARK  102  A    between atoms: _249  and  _251
REMARK  103  A    between atoms: _251  and  _252
REMARK  104  A    between atoms: _251  and  _254
REMARK  105  A    between atoms: _254  and  _255
REMARK  106  A    between atoms: _258  and  _260
REMARK  107  A    between atoms: _260  and  _261
REMARK  108  A    between atoms: _263  and  _265
REMARK  109  A    between atoms: _265  and  _266
REMARK  110  A    between atoms: _265  and  _268
REMARK  111  A    between atoms: _268  and  _269
REMARK  112  A    between atoms: _269  and  _270
REMARK  113  A    between atoms: _270  and  _271
REMARK  114  A    between atoms: _280  and  _282
REMARK  115  A    between atoms: _282  and  _283
REMARK  116  A    between atoms: _282  and  _285
REMARK  117  A    between atoms: _285  and  _286
REMARK  118  A    between atoms: _291  and  _293
REMARK  119  A    between atoms: _293  and  _294
REMARK  120  A    between atoms: _293  and  _296
REMARK  121  A    between atoms: _296  and  _297
REMARK  122  A    between atoms: _297  and  _298
REMARK  123  A    between atoms: _298  and  _299
REMARK  124  A    between atoms: _308  and  _310
REMARK  125  A    between atoms: _310  and  _311
REMARK  126  A    between atoms: _310  and  _313
REMARK  127  A    between atoms: _313  and  _314
REMARK  128  A    between atoms: _317  and  _319
REMARK  129  A    between atoms: _319  and  _320
REMARK  130  A    between atoms: _319  and  _322
REMARK  131  A    between atoms: _322  and  _323
REMARK  132  A    between atoms: _326  and  _328
REMARK  133  A    between atoms: _328  and  _329
REMARK  134  A    between atoms: _328  and  _331
REMARK  135  A    between atoms: _331  and  _332
REMARK  136  A    between atoms: _335  and  _337
REMARK  137  A    between atoms: _337  and  _338
REMARK  138  A    between atoms: _337  and  _340
REMARK  139  A    between atoms: _340  and  _341
REMARK  140  A    between atoms: _344  and  _346
REMARK  141  A    between atoms: _346  and  _347
REMARK  142  A    between atoms: _349  and  _351
REMARK  143  A    between atoms: _351  and  _352
REMARK  144  A    between atoms: _355  and  _357
REMARK  145  A    between atoms: _357  and  _358
REMARK  146  A    between atoms: _357  and  _360
REMARK  147  A    between atoms: _360  and  _361
REMARK  148  A    between atoms: _364  and  _366
REMARK  149  A    between atoms: _366  and  _367
REMARK  150  A    between atoms: _366  and  _369
REMARK  151  A    between atoms: _369  and  _370
REMARK  152  A    between atoms: _373  and  _375
REMARK  153  A    between atoms: _375  and  _376
REMARK  154  A    between atoms: _375  and  _378
REMARK  155  A    between atoms: _378  and  _379
REMARK  156  A    between atoms: _382  and  _384
REMARK  157  A    between atoms: _384  and  _385
REMARK  158  A    between atoms: _384  and  _387
REMARK  159  A    between atoms: _390  and  _392
REMARK  160  A    between atoms: _392  and  _393
REMARK  161  A    between atoms: _392  and  _395
REMARK  162  A    between atoms: _395  and  _396
REMARK  163  A    between atoms: _399  and  _401
REMARK  164  A    between atoms: _401  and  _402
REMARK  165  A    between atoms: _401  and  _404
REMARK  166  A    between atoms: _404  and  _405
REMARK  167  A    between atoms: _405  and  _406
REMARK  168  A    between atoms: _406  and  _407
REMARK  169  A    between atoms: _407  and  _408
REMARK  170  A    between atoms: _412  and  _414
REMARK  171  A    between atoms: _414  and  _415
REMARK  172  A    between atoms: _414  and  _417
REMARK  173  A    between atoms: _417  and  _418
REMARK  174  A    between atoms: _418  and  _419
REMARK  175  A    between atoms: _421  and  _423
REMARK  176  A    between atoms: _423  and  _424
REMARK  177  A    between atoms: _423  and  _426
REMARK  178  A    between atoms: _426  and  _427
REMARK  179  A    between atoms: _430  and  _432
REMARK  180  A    between atoms: _432  and  _433
REMARK  181  A    between atoms: _435  and  _437
REMARK  182  A    between atoms: _437  and  _438
REMARK  183  A    between atoms: _440  and  _442
REMARK  184  A    between atoms: _442  and  _443
REMARK  185  A    between atoms: _442  and  _445
REMARK  186  A    between atoms: _445  and  _446
REMARK  187  A    between atoms: _449  and  _451
REMARK  188  A    between atoms: _451  and  _452
REMARK  189  A    between atoms: _454  and  _456
REMARK  190  A    between atoms: _456  and  _457
REMARK  191  A    between atoms: _459  and  _461
REMARK  192  A    between atoms: _461  and  _462
REMARK  193  A    between atoms: _461  and  _464
REMARK  194  A    between atoms: _464  and  _465
REMARK  195  A    between atoms: _471  and  _473
REMARK  196  A    between atoms: _473  and  _474
REMARK  197  A    between atoms: _473  and  _476
REMARK  198  A    between atoms: _476  and  _477
REMARK  199  A    between atoms: _477  and  _478
REMARK  200  A    between atoms: _480  and  _482
REMARK  201  A    between atoms: _482  and  _483
REMARK  202  A    between atoms: _482  and  _485
REMARK  203  A    between atoms: _488  and  _490
REMARK  204  A    between atoms: _490  and  _491
REMARK  205  A    between atoms: _490  and  _493
REMARK  206  A    between atoms: _493  and  _494
REMARK  207  A    between atoms: _497  and  _499
REMARK  208  A    between atoms: _499  and  _500
REMARK  209  A    between atoms: _499  and  _502
REMARK  210  A    between atoms: _502  and  _503
REMARK  211  A    between atoms: _507  and  _508
REMARK  212  A    between atoms: _513  and  _515
REMARK  213  A    between atoms: _515  and  _516
REMARK  214  A    between atoms: _515  and  _518
REMARK  215  A    between atoms: _521  and  _523
REMARK  216  A    between atoms: _523  and  _524
REMARK  217  A    between atoms: _523  and  _526
REMARK  218  A    between atoms: _526  and  _527
REMARK  219  A    between atoms: _532  and  _534
REMARK  220  A    between atoms: _534  and  _535
REMARK  221  A    between atoms: _534  and  _537
REMARK  222  A    between atoms: _537  and  _538
REMARK  223  A    between atoms: _541  and  _543
REMARK  224  A    between atoms: _543  and  _544
REMARK  225  A    between atoms: _543  and  _546
REMARK  226  A    between atoms: _546  and  _547
REMARK  227  A    between atoms: _550  and  _552
REMARK  228  A    between atoms: _552  and  _553
REMARK  229  A    between atoms: _555  and  _557
REMARK  230  A    between atoms: _557  and  _558
REMARK  231  A    between atoms: _557  and  _560
REMARK  232  A    between atoms: _560  and  _561
REMARK  233  A    between atoms: _561  and  _562
REMARK  234  A    between atoms: _562  and  _563
REMARK  235  A    between atoms: _572  and  _574
REMARK  236  A    between atoms: _574  and  _575
REMARK  237  A    between atoms: _574  and  _577
REMARK  238  A    between atoms: _577  and  _578
REMARK                            x       y       z     vdW  Elec       q    Type
REMARK                         _______ _______ _______ _____ _____    ______ ____
ROOT
ATOM      1  O   HOH     1     -17.800 -22.253 -16.618  0.00  0.00    +0.000 OA
ENDROOT
TORSDOF 0
REMARK  Name = ../refined-set-2016/3nu6/3nu6_pocket.pdb
REMARK  238 active torsions:
REMARK  status: ('A' for Active; 'I' for Inactive)
REMARK    1  A    between atoms: _1  and  _3
REMARK    2  A    between atoms: _3  and  _4
REMARK    3  A    between atoms: _3  and  _6
REMARK    4  A    between atoms: _6  and  _7
REMARK    5  A    between atoms: _7  and  _8
REMARK    6  A    between atoms: _8  and  _9
REMARK    7  A    between atoms: _18  and  _20
REMARK    8  A    between atoms: _20  and  _21
REMARK    9  A    between atoms: _20  and  _23
REMARK   10  A    between atoms: _23  and  _24
REMARK   11  A    between atoms: _27  and  _29
REMARK   12  A    between atoms: _29  and  _30
REMARK   13  A    between atoms: _29  and  _32
REMARK   14  A    between atoms: _32  and  _33
REMARK   15  A    between atoms: _36  and  _38
REMARK   16  A    between atoms: _38  and  _39
REMARK   17  A    between atoms: _38  and  _41
REMARK   18  A    between atoms: _41  and  _42
REMARK   19  A    between atoms: _45  and  _47
REMARK   20  A    between atoms: _47  and  _48
REMARK   21  A    between atoms: _47  and  _50
REMARK   22  A    between atoms: _50  and  _51
REMARK   23  A    between atoms: _54  and  _56
REMARK   24  A    between atoms: _56  and  _57
REMARK   25  A    between atoms: _59  and  _61
REMARK   26  A    between atoms: _61  and  _62
REMARK   27  A    between atoms: _65  and  _67
REMARK   28  A    between atoms: _67  and  _68
REMARK   29  A    between atoms: _67  and  _70
REMARK   30  A    between atoms: _70  and  _71
REMARK   31  A    between atoms: _74  and  _76
REMARK   32  A    between atoms: _76  and  _77
REMARK   33  A    between atoms: _76  and  _79
REMARK   34  A    between atoms: _79  and  _80
REMARK   35  A    between atoms: _83  and  _85
REMARK   36  A    between atoms: _85  and  _86
REMARK   37  A    between atoms: _85  and  _88
REMARK   38  A    between atoms: _88  and  _89
REMARK   39  A    between atoms: _92  and  _94
REMARK   40  A    between atoms: _94  and  _95
REMARK   41  A    between atoms: _94  and  _97
REMARK   42  A    between atoms: _100  and  _102
REMARK   43  A    between atoms: _102  and  _103
REMARK   44  A    between atoms: _102  and  _105
REMARK   45  A    between atoms: _106  and  _107
REMARK   46  A    between atoms: _107  and  _108
REMARK   47  A    between atoms: _108  and  _109
REMARK   48  A    between atoms: _113  and  _115
REMARK   49  A    between atoms: _115  and  _116
REMARK   50  A    between atoms: _115  and  _118
REMARK   51  A    between atoms: _118  and  _119
REMARK   52  A    between atoms: _119  and  _120
REMARK   53  A    between atoms: _122  and  _124
REMARK   54  A    between atoms: _124  and  _125
REMARK   55  A    between atoms: _124  and  _127
REMARK   56  A    between atoms: _127  and  _128
REMARK   57  A    between atoms: _131  and  _133
REMARK   58  A    between atoms: _133  and  _134
REMARK   59  A    between atoms: _136  and  _138
REMARK   60  A    between atoms: _138  and  _139
REMARK   61  A    between atoms: _141  and  _143
REMARK   62  A    between atoms: _143  and  _144
REMARK   63  A    between atoms: _143  and  _146
REMARK   64  A    between atoms: _146  and  _147
REMARK   65  A    between atoms: _150  and  _152
REMARK   66  A    between atoms: _152  and  _153
REMARK   67  A    between atoms: _155  and  _157
REMARK   68  A    between atoms: _157  and  _158
REMARK   69  A    between atoms: _160  and  _162
REMARK   70  A    between atoms: _162  and  _163
REMARK   71  A    between atoms: _162  and  _165
REMARK   72  A    between atoms: _165  and  _166
REMARK   73  A    between atoms: _172  and  _174
REMARK   74  A    between atoms: _174  and  _175
REMARK   75  A    between atoms: _174  and  _177
REMARK   76  A    between atoms: _177  and  _178
REMARK   77  A    between atoms: _178  and  _179
REMARK   78  A    between atoms: _181  and  _183
REMARK   79  A    between atoms: _183  and  _184
REMARK   80  A    between atoms: _183  and  _186
REMARK   81  A    between atoms: _189  and  _191
REMARK   82  A    between atoms: _191  and  _192
REMARK   83  A    between atoms: _191  and  _194
REMARK   84  A    between atoms: _194  and  _195
REMARK   85  A    between atoms: _199  and  _200
REMARK   86  A    between atoms: _205  and  _207
REMARK   87  A    between atoms: _207  and  _208
REMARK   88  A    between atoms: _207  and  _210
REMARK   89  A    between atoms: _210  and  _211
REMARK   90  A    between atoms: _215  and  _216
REMARK   91  A    between atoms: _221  and  _223
REMARK   92  A    between atoms: _223  and  _224
REMARK   93  A    between atoms: _223  and  _226
REMARK   94  A    between atoms: _229  and  _231
REMARK   95  A    between atoms: _231  and  _232
REMARK   96  A    between atoms: _231  and  _234
REMARK   97  A    between atoms: _234  and  _235
REMARK   98  A    between atoms: _240  and  _242
REMARK   99  A    between atoms: _242  and  _243
REMARK  100  A    between atoms: _242  and  _245
REMARK  101  A    between atoms: _245  and  _246
REMARK  102  A    between atoms: _249  and  _251
REMARK  103  A    between atoms: _251  and  _252
REMARK  104  A    between atoms: _251  and  _254
REMARK  105  A    between atoms: _254  and  _255
REMARK  106  A    between atoms: _258  and  _260
REMARK  107  A    between atoms: _260  and  _261
REMARK  108  A    between atoms: _263  and  _265
REMARK  109  A    between atoms: _265  and  _266
REMARK  110  A    between atoms: _265  and  _268
REMARK  111  A    between atoms: _268  and  _269
REMARK  112  A    between atoms: _269  and  _270
REMARK  113  A    between atoms: _270  and  _271
REMARK  114  A    between atoms: _280  and  _282
REMARK  115  A    between atoms: _282  and  _283
REMARK  116  A    between atoms: _282  and  _285
REMARK  117  A    between atoms: _285  and  _286
REMARK  118  A    between atoms: _291  and  _293
REMARK  119  A    between atoms: _293  and  _294
REMARK  120  A    between atoms: _293  and  _296
REMARK  121  A    between atoms: _296  and  _297
REMARK  122  A    between atoms: _297  and  _298
REMARK  123  A    between atoms: _298  and  _299
REMARK  124  A    between atoms: _308  and  _310
REMARK  125  A    between atoms: _310  and  _311
REMARK  126  A    between atoms: _310  and  _313
REMARK  127  A    between atoms: _313  and  _314
REMARK  128  A    between atoms: _317  and  _319
REMARK  129  A    between atoms: _319  and  _320
REMARK  130  A    between atoms: _319  and  _322
REMARK  131  A    between atoms: _322  and  _323
REMARK  132  A    between atoms: _326  and  _328
REMARK  133  A    between atoms: _328  and  _329
REMARK  134  A    between atoms: _328  and  _331
REMARK  135  A    between atoms: _331  and  _332
REMARK  136  A    between atoms: _335  and  _337
REMARK  137  A    between atoms: _337  and  _338
REMARK  138  A    between atoms: _337  and  _340
REMARK  139  A    between atoms: _340  and  _341
REMARK  140  A    between atoms: _344  and  _346
REMARK  141  A    between atoms: _346  and  _347
REMARK  142  A    between atoms: _349  and  _351
REMARK  143  A    between atoms: _351  and  _352
REMARK  144  A    between atoms: _355  and  _357
REMARK  145  A    between atoms: _357  and  _358
REMARK  146  A    between atoms: _357  and  _360
REMARK  147  A    between atoms: _360  and  _361
REMARK  148  A    between atoms: _364  and  _366
REMARK  149  A    between atoms: _366  and  _367
REMARK  150  A    between atoms: _366  and  _369
REMARK  151  A    between atoms: _369  and  _370
REMARK  152  A    between atoms: _373  and  _375
REMARK  153  A    between atoms: _375  and  _376
REMARK  154  A    between atoms: _375  and  _378
REMARK  155  A    between atoms: _378  and  _379
REMARK  156  A    between atoms: _382  and  _384
REMARK  157  A    between atoms: _384  and  _385
REMARK  158  A    between atoms: _384  and  _387
REMARK  159  A    between atoms: _390  and  _392
REMARK  160  A    between atoms: _392  and  _393
REMARK  161  A    between atoms: _392  and  _395
REMARK  162  A    between atoms: _395  and  _396
REMARK  163  A    between atoms: _399  and  _401
REMARK  164  A    between atoms: _401  and  _402
REMARK  165  A    between atoms: _401  and  _404
REMARK  166  A    between atoms: _404  and  _405
REMARK  167  A    between atoms: _405  and  _406
REMARK  168  A    between atoms: _406  and  _407
REMARK  169  A    between atoms: _407  and  _408
REMARK  170  A    between atoms: _412  and  _414
REMARK  171  A    between atoms: _414  and  _415
REMARK  172  A    between atoms: _414  and  _417
REMARK  173  A    between atoms: _417  and  _418
REMARK  174  A    between atoms: _418  and  _419
REMARK  175  A    between atoms: _421  and  _423
REMARK  176  A    between atoms: _423  and  _424
REMARK  177  A    between atoms: _423  and  _426
REMARK  178  A    between atoms: _426  and  _427
REMARK  179  A    between atoms: _430  and  _432
REMARK  180  A    between atoms: _432  and  _433
REMARK  181  A    between atoms: _435  and  _437
REMARK  182  A    between atoms: _437  and  _438
REMARK  183  A    between atoms: _440  and  _442
REMARK  184  A    between atoms: _442  and  _443
REMARK  185  A    between atoms: _442  and  _445
REMARK  186  A    between atoms: _445  and  _446
REMARK  187  A    between atoms: _449  and  _451
REMARK  188  A    between atoms: _451  and  _452
REMARK  189  A    between atoms: _454  and  _456
REMARK  190  A    between atoms: _456  and  _457
REMARK  191  A    between atoms: _459  and  _461
REMARK  192  A    between atoms: _461  and  _462
REMARK  193  A    between atoms: _461  and  _464
REMARK  194  A    between atoms: _464  and  _465
REMARK  195  A    between atoms: _471  and  _473
REMARK  196  A    between atoms: _473  and  _474
REMARK  197  A    between atoms: _473  and  _476
REMARK  198  A    between atoms: _476  and  _477
REMARK  199  A    between atoms: _477  and  _478
REMARK  200  A    between atoms: _480  and  _482
REMARK  201  A    between atoms: _482  and  _483
REMARK  202  A    between atoms: _482  and  _485
REMARK  203  A    between atoms: _488  and  _490
REMARK  204  A    between atoms: _490  and  _491
REMARK  205  A    between atoms: _490  and  _493
REMARK  206  A    between atoms: _493  and  _494
REMARK  207  A    between atoms: _497  and  _499
REMARK  208  A    between atoms: _499  and  _500
REMARK  209  A    between atoms: _499  and  _502
REMARK  210  A    between atoms: _502  and  _503
REMARK  211  A    between atoms: _507  and  _508
REMARK  212  A    between atoms: _513  and  _515
REMARK  213  A    between atoms: _515  and  _516
REMARK  214  A    between atoms: _515  and  _518
REMARK  215  A    between atoms: _521  and  _523
REMARK  216  A    between atoms: _523  and  _524
REMARK  217  A    between atoms: _523  and  _526
REMARK  218  A    between atoms: _526  and  _527
REMARK  219  A    between atoms: _532  and  _534
REMARK  220  A    between atoms: _534  and  _535
REMARK  221  A    between atoms: _534  and  _537
REMARK  222  A    between atoms: _537  and  _538
REMARK  223  A    between atoms: _541  and  _543
REMARK  224  A    between atoms: _543  and  _544
REMARK  225  A    between atoms: _543  and  _546
REMARK  226  A    between atoms: _546  and  _547
REMARK  227  A    between atoms: _550  and  _552
REMARK  228  A    between atoms: _552  and  _553
REMARK  229  A    between atoms: _555  and  _557
REMARK  230  A    between atoms: _557  and  _558
REMARK  231  A    between atoms: _557  and  _560
REMARK  232  A    between atoms: _560  and  _561
REMARK  233  A    between atoms: _561  and  _562
REMARK  234  A    between atoms: _562  and  _563
REMARK  235  A    between atoms: _572  and  _574
REMARK  236  A    between atoms: _574  and  _575
REMARK  237  A    between atoms: _574  and  _577
REMARK  238  A    between atoms: _577  and  _578
REMARK                            x       y       z     vdW  Elec       q    Type
REMARK                         _______ _______ _______ _____ _____    ______ ____
ROOT
ATOM      1  O   HOH     1     -10.005 -22.562 -17.406  0.00  0.00    +0.000 OA
ENDROOT
TORSDOF 0
REMARK  Name = ../refined-set-2016/3nu6/3nu6_pocket.pdb
REMARK  238 active torsions:
REMARK  status: ('A' for Active; 'I' for Inactive)
REMARK    1  A    between atoms: _1  and  _3
REMARK    2  A    between atoms: _3  and  _4
REMARK    3  A    between atoms: _3  and  _6
REMARK    4  A    between atoms: _6  and  _7
REMARK    5  A    between atoms: _7  and  _8
REMARK    6  A    between atoms: _8  and  _9
REMARK    7  A    between atoms: _18  and  _20
REMARK    8  A    between atoms: _20  and  _21
REMARK    9  A    between atoms: _20  and  _23
REMARK   10  A    between atoms: _23  and  _24
REMARK   11  A    between atoms: _27  and  _29
REMARK   12  A    between atoms: _29  and  _30
REMARK   13  A    between atoms: _29  and  _32
REMARK   14  A    between atoms: _32  and  _33
REMARK   15  A    between atoms: _36  and  _38
REMARK   16  A    between atoms: _38  and  _39
REMARK   17  A    between atoms: _38  and  _41
REMARK   18  A    between atoms: _41  and  _42
REMARK   19  A    between atoms: _45  and  _47
REMARK   20  A    between atoms: _47  and  _48
REMARK   21  A    between atoms: _47  and  _50
REMARK   22  A    between atoms: _50  and  _51
REMARK   23  A    between atoms: _54  and  _56
REMARK   24  A    between atoms: _56  and  _57
REMARK   25  A    between atoms: _59  and  _61
REMARK   26  A    between atoms: _61  and  _62
REMARK   27  A    between atoms: _65  and  _67
REMARK   28  A    between atoms: _67  and  _68
REMARK   29  A    between atoms: _67  and  _70
REMARK   30  A    between atoms: _70  and  _71
REMARK   31  A    between atoms: _74  and  _76
REMARK   32  A    between atoms: _76  and  _77
REMARK   33  A    between atoms: _76  and  _79
REMARK   34  A    between atoms: _79  and  _80
REMARK   35  A    between atoms: _83  and  _85
REMARK   36  A    between atoms: _85  and  _86
REMARK   37  A    between atoms: _85  and  _88
REMARK   38  A    between atoms: _88  and  _89
REMARK   39  A    between atoms: _92  and  _94
REMARK   40  A    between atoms: _94  and  _95
REMARK   41  A    between atoms: _94  and  _97
REMARK   42  A    between atoms: _100  and  _102
REMARK   43  A    between atoms: _102  and  _103
REMARK   44  A    between atoms: _102  and  _105
REMARK   45  A    between atoms: _106  and  _107
REMARK   46  A    between atoms: _107  and  _108
REMARK   47  A    between atoms: _108  and  _109
REMARK   48  A    between atoms: _113  and  _115
REMARK   49  A    between atoms: _115  and  _116
REMARK   50  A    between atoms: _115  and  _118
REMARK   51  A    between atoms: _118  and  _119
REMARK   52  A    between atoms: _119  and  _120
REMARK   53  A    between atoms: _122  and  _124
REMARK   54  A    between atoms: _124  and  _125
REMARK   55  A    between atoms: _124  and  _127
REMARK   56  A    between atoms: _127  and  _128
REMARK   57  A    between atoms: _131  and  _133
REMARK   58  A    between atoms: _133  and  _134
REMARK   59  A    between atoms: _136  and  _138
REMARK   60  A    between atoms: _138  and  _139
REMARK   61  A    between atoms: _141  and  _143
REMARK   62  A    between atoms: _143  and  _144
REMARK   63  A    between atoms: _143  and  _146
REMARK   64  A    between atoms: _146  and  _147
REMARK   65  A    between atoms: _150  and  _152
REMARK   66  A    between atoms: _152  and  _153
REMARK   67  A    between atoms: _155  and  _157
REMARK   68  A    between atoms: _157  and  _158
REMARK   69  A    between atoms: _160  and  _162
REMARK   70  A    between atoms: _162  and  _163
REMARK   71  A    between atoms: _162  and  _165
REMARK   72  A    between atoms: _165  and  _166
REMARK   73  A    between atoms: _172  and  _174
REMARK   74  A    between atoms: _174  and  _175
REMARK   75  A    between atoms: _174  and  _177
REMARK   76  A    between atoms: _177  and  _178
REMARK   77  A    between atoms: _178  and  _179
REMARK   78  A    between atoms: _181  and  _183
REMARK   79  A    between atoms: _183  and  _184
REMARK   80  A    between atoms: _183  and  _186
REMARK   81  A    between atoms: _189  and  _191
REMARK   82  A    between atoms: _191  and  _192
REMARK   83  A    between atoms: _191  and  _194
REMARK   84  A    between atoms: _194  and  _195
REMARK   85  A    between atoms: _199  and  _200
REMARK   86  A    between atoms: _205  and  _207
REMARK   87  A    between atoms: _207  and  _208
REMARK   88  A    between atoms: _207  and  _210
REMARK   89  A    between atoms: _210  and  _211
REMARK   90  A    between atoms: _215  and  _216
REMARK   91  A    between atoms: _221  and  _223
REMARK   92  A    between atoms: _223  and  _224
REMARK   93  A    between atoms: _223  and  _226
REMARK   94  A    between atoms: _229  and  _231
REMARK   95  A    between atoms: _231  and  _232
REMARK   96  A    between atoms: _231  and  _234
REMARK   97  A    between atoms: _234  and  _235
REMARK   98  A    between atoms: _240  and  _242
REMARK   99  A    between atoms: _242  and  _243
REMARK  100  A    between atoms: _242  and  _245
REMARK  101  A    between atoms: _245  and  _246
REMARK  102  A    between atoms: _249  and  _251
REMARK  103  A    between atoms: _251  and  _252
REMARK  104  A    between atoms: _251  and  _254
REMARK  105  A    between atoms: _254  and  _255
REMARK  106  A    between atoms: _258  and  _260
REMARK  107  A    between atoms: _260  and  _261
REMARK  108  A    between atoms: _263  and  _265
REMARK  109  A    between atoms: _265  and  _266
REMARK  110  A    between atoms: _265  and  _268
REMARK  111  A    between atoms: _268  and  _269
REMARK  112  A    between atoms: _269  and  _270
REMARK  113  A    between atoms: _270  and  _271
REMARK  114  A    between atoms: _280  and  _282
REMARK  115  A    between atoms: _282  and  _283
REMARK  116  A    between atoms: _282  and  _285
REMARK  117  A    between atoms: _285  and  _286
REMARK  118  A    between atoms: _291  and  _293
REMARK  119  A    between atoms: _293  and  _294
REMARK  120  A    between atoms: _293  and  _296
REMARK  121  A    between atoms: _296  and  _297
REMARK  122  A    between atoms: _297  and  _298
REMARK  123  A    between atoms: _298  and  _299
REMARK  124  A    between atoms: _308  and  _310
REMARK  125  A    between atoms: _310  and  _311
REMARK  126  A    between atoms: _310  and  _313
REMARK  127  A    between atoms: _313  and  _314
REMARK  128  A    between atoms: _317  and  _319
REMARK  129  A    between atoms: _319  and  _320
REMARK  130  A    between atoms: _319  and  _322
REMARK  131  A    between atoms: _322  and  _323
REMARK  132  A    between atoms: _326  and  _328
REMARK  133  A    between atoms: _328  and  _329
REMARK  134  A    between atoms: _328  and  _331
REMARK  135  A    between atoms: _331  and  _332
REMARK  136  A    between atoms: _335  and  _337
REMARK  137  A    between atoms: _337  and  _338
REMARK  138  A    between atoms: _337  and  _340
REMARK  139  A    between atoms: _340  and  _341
REMARK  140  A    between atoms: _344  and  _346
REMARK  141  A    between atoms: _346  and  _347
REMARK  142  A    between atoms: _349  and  _351
REMARK  143  A    between atoms: _351  and  _352
REMARK  144  A    between atoms: _355  and  _357
REMARK  145  A    between atoms: _357  and  _358
REMARK  146  A    between atoms: _357  and  _360
REMARK  147  A    between atoms: _360  and  _361
REMARK  148  A    between atoms: _364  and  _366
REMARK  149  A    between atoms: _366  and  _367
REMARK  150  A    between atoms: _366  and  _369
REMARK  151  A    between atoms: _369  and  _370
REMARK  152  A    between atoms: _373  and  _375
REMARK  153  A    between atoms: _375  and  _376
REMARK  154  A    between atoms: _375  and  _378
REMARK  155  A    between atoms: _378  and  _379
REMARK  156  A    between atoms: _382  and  _384
REMARK  157  A    between atoms: _384  and  _385
REMARK  158  A    between atoms: _384  and  _387
REMARK  159  A    between atoms: _390  and  _392
REMARK  160  A    between atoms: _392  and  _393
REMARK  161  A    between atoms: _392  and  _395
REMARK  162  A    between atoms: _395  and  _396
REMARK  163  A    between atoms: _399  and  _401
REMARK  164  A    between atoms: _401  and  _402
REMARK  165  A    between atoms: _401  and  _404
REMARK  166  A    between atoms: _404  and  _405
REMARK  167  A    between atoms: _405  and  _406
REMARK  168  A    between atoms: _406  and  _407
REMARK  169  A    between atoms: _407  and  _408
REMARK  170  A    between atoms: _412  and  _414
REMARK  171  A    between atoms: _414  and  _415
REMARK  172  A    between atoms: _414  and  _417
REMARK  173  A    between atoms: _417  and  _418
REMARK  174  A    between atoms: _418  and  _419
REMARK  175  A    between atoms: _421  and  _423
REMARK  176  A    between atoms: _423  and  _424
REMARK  177  A    between atoms: _423  and  _426
REMARK  178  A    between atoms: _426  and  _427
REMARK  179  A    between atoms: _430  and  _432
REMARK  180  A    between atoms: _432  and  _433
REMARK  181  A    between atoms: _435  and  _437
REMARK  182  A    between atoms: _437  and  _438
REMARK  183  A    between atoms: _440  and  _442
REMARK  184  A    between atoms: _442  and  _443
REMARK  185  A    between atoms: _442  and  _445
REMARK  186  A    between atoms: _445  and  _446
REMARK  187  A    between atoms: _449  and  _451
REMARK  188  A    between atoms: _451  and  _452
REMARK  189  A    between atoms: _454  and  _456
REMARK  190  A    between atoms: _456  and  _457
REMARK  191  A    between atoms: _459  and  _461
REMARK  192  A    between atoms: _461  and  _462
REMARK  193  A    between atoms: _461  and  _464
REMARK  194  A    between atoms: _464  and  _465
REMARK  195  A    between atoms: _471  and  _473
REMARK  196  A    between atoms: _473  and  _474
REMARK  197  A    between atoms: _473  and  _476
REMARK  198  A    between atoms: _476  and  _477
REMARK  199  A    between atoms: _477  and  _478
REMARK  200  A    between atoms: _480  and  _482
REMARK  201  A    between atoms: _482  and  _483
REMARK  202  A    between atoms: _482  and  _485
REMARK  203  A    between atoms: _488  and  _490
REMARK  204  A    between atoms: _490  and  _491
REMARK  205  A    between atoms: _490  and  _493
REMARK  206  A    between atoms: _493  and  _494
REMARK  207  A    between atoms: _497  and  _499
REMARK  208  A    between atoms: _499  and  _500
REMARK  209  A    between atoms: _499  and  _502
REMARK  210  A    between atoms: _502  and  _503
REMARK  211  A    between atoms: _507  and  _508
REMARK  212  A    between atoms: _513  and  _515
REMARK  213  A    between atoms: _515  and  _516
REMARK  214  A    between atoms: _515  and  _518
REMARK  215  A    between atoms: _521  and  _523
REMARK  216  A    between atoms: _523  and  _524
REMARK  217  A    between atoms: _523  and  _526
REMARK  218  A    between atoms: _526  and  _527
REMARK  219  A    between atoms: _532  and  _534
REMARK  220  A    between atoms: _534  and  _535
REMARK  221  A    between atoms: _534  and  _537
REMARK  222  A    between atoms: _537  and  _538
REMARK  223  A    between atoms: _541  and  _543
REMARK  224  A    between atoms: _543  and  _544
REMARK  225  A    between atoms: _543  and  _546
REMARK  226  A    between atoms: _546  and  _547
REMARK  227  A    between atoms: _550  and  _552
REMARK  228  A    between atoms: _552  and  _553
REMARK  229  A    between atoms: _555  and  _557
REMARK  230  A    between atoms: _557  and  _558
REMARK  231  A    between atoms: _557  and  _560
REMARK  232  A    between atoms: _560  and  _561
REMARK  233  A    between atoms: _561  and  _562
REMARK  234  A    between atoms: _562  and  _563
REMARK  235  A    between atoms: _572  and  _574
REMARK  236  A    between atoms: _574  and  _575
REMARK  237  A    between atoms: _574  and  _577
REMARK  238  A    between atoms: _577  and  _578
REMARK                            x       y       z     vdW  Elec       q    Type
REMARK                         _______ _______ _______ _____ _____    ______ ____
ROOT
ATOM      1  O   HOH     1     -10.612 -27.540 -16.834  0.00  0.00    +0.000 OA
ENDROOT
TORSDOF 0
REMARK  Name = ../refined-set-2016/3nu6/3nu6_pocket.pdb
REMARK  238 active torsions:
REMARK  status: ('A' for Active; 'I' for Inactive)
REMARK    1  A    between atoms: _1  and  _3
REMARK    2  A    between atoms: _3  and  _4
REMARK    3  A    between atoms: _3  and  _6
REMARK    4  A    between atoms: _6  and  _7
REMARK    5  A    between atoms: _7  and  _8
REMARK    6  A    between atoms: _8  and  _9
REMARK    7  A    between atoms: _18  and  _20
REMARK    8  A    between atoms: _20  and  _21
REMARK    9  A    between atoms: _20  and  _23
REMARK   10  A    between atoms: _23  and  _24
REMARK   11  A    between atoms: _27  and  _29
REMARK   12  A    between atoms: _29  and  _30
REMARK   13  A    between atoms: _29  and  _32
REMARK   14  A    between atoms: _32  and  _33
REMARK   15  A    between atoms: _36  and  _38
REMARK   16  A    between atoms: _38  and  _39
REMARK   17  A    between atoms: _38  and  _41
REMARK   18  A    between atoms: _41  and  _42
REMARK   19  A    between atoms: _45  and  _47
REMARK   20  A    between atoms: _47  and  _48
REMARK   21  A    between atoms: _47  and  _50
REMARK   22  A    between atoms: _50  and  _51
REMARK   23  A    between atoms: _54  and  _56
REMARK   24  A    between atoms: _56  and  _57
REMARK   25  A    between atoms: _59  and  _61
REMARK   26  A    between atoms: _61  and  _62
REMARK   27  A    between atoms: _65  and  _67
REMARK   28  A    between atoms: _67  and  _68
REMARK   29  A    between atoms: _67  and  _70
REMARK   30  A    between atoms: _70  and  _71
REMARK   31  A    between atoms: _74  and  _76
REMARK   32  A    between atoms: _76  and  _77
REMARK   33  A    between atoms: _76  and  _79
REMARK   34  A    between atoms: _79  and  _80
REMARK   35  A    between atoms: _83  and  _85
REMARK   36  A    between atoms: _85  and  _86
REMARK   37  A    between atoms: _85  and  _88
REMARK   38  A    between atoms: _88  and  _89
REMARK   39  A    between atoms: _92  and  _94
REMARK   40  A    between atoms: _94  and  _95
REMARK   41  A    between atoms: _94  and  _97
REMARK   42  A    between atoms: _100  and  _102
REMARK   43  A    between atoms: _102  and  _103
REMARK   44  A    between atoms: _102  and  _105
REMARK   45  A    between atoms: _106  and  _107
REMARK   46  A    between atoms: _107  and  _108
REMARK   47  A    between atoms: _108  and  _109
REMARK   48  A    between atoms: _113  and  _115
REMARK   49  A    between atoms: _115  and  _116
REMARK   50  A    between atoms: _115  and  _118
REMARK   51  A    between atoms: _118  and  _119
REMARK   52  A    between atoms: _119  and  _120
REMARK   53  A    between atoms: _122  and  _124
REMARK   54  A    between atoms: _124  and  _125
REMARK   55  A    between atoms: _124  and  _127
REMARK   56  A    between atoms: _127  and  _128
REMARK   57  A    between atoms: _131  and  _133
REMARK   58  A    between atoms: _133  and  _134
REMARK   59  A    between atoms: _136  and  _138
REMARK   60  A    between atoms: _138  and  _139
REMARK   61  A    between atoms: _141  and  _143
REMARK   62  A    between atoms: _143  and  _144
REMARK   63  A    between atoms: _143  and  _146
REMARK   64  A    between atoms: _146  and  _147
REMARK   65  A    between atoms: _150  and  _152
REMARK   66  A    between atoms: _152  and  _153
REMARK   67  A    between atoms: _155  and  _157
REMARK   68  A    between atoms: _157  and  _158
REMARK   69  A    between atoms: _160  and  _162
REMARK   70  A    between atoms: _162  and  _163
REMARK   71  A    between atoms: _162  and  _165
REMARK   72  A    between atoms: _165  and  _166
REMARK   73  A    between atoms: _172  and  _174
REMARK   74  A    between atoms: _174  and  _175
REMARK   75  A    between atoms: _174  and  _177
REMARK   76  A    between atoms: _177  and  _178
REMARK   77  A    between atoms: _178  and  _179
REMARK   78  A    between atoms: _181  and  _183
REMARK   79  A    between atoms: _183  and  _184
REMARK   80  A    between atoms: _183  and  _186
REMARK   81  A    between atoms: _189  and  _191
REMARK   82  A    between atoms: _191  and  _192
REMARK   83  A    between atoms: _191  and  _194
REMARK   84  A    between atoms: _194  and  _195
REMARK   85  A    between atoms: _199  and  _200
REMARK   86  A    between atoms: _205  and  _207
REMARK   87  A    between atoms: _207  and  _208
REMARK   88  A    between atoms: _207  and  _210
REMARK   89  A    between atoms: _210  and  _211
REMARK   90  A    between atoms: _215  and  _216
REMARK   91  A    between atoms: _221  and  _223
REMARK   92  A    between atoms: _223  and  _224
REMARK   93  A    between atoms: _223  and  _226
REMARK   94  A    between atoms: _229  and  _231
REMARK   95  A    between atoms: _231  and  _232
REMARK   96  A    between atoms: _231  and  _234
REMARK   97  A    between atoms: _234  and  _235
REMARK   98  A    between atoms: _240  and  _242
REMARK   99  A    between atoms: _242  and  _243
REMARK  100  A    between atoms: _242  and  _245
REMARK  101  A    between atoms: _245  and  _246
REMARK  102  A    between atoms: _249  and  _251
REMARK  103  A    between atoms: _251  and  _252
REMARK  104  A    between atoms: _251  and  _254
REMARK  105  A    between atoms: _254  and  _255
REMARK  106  A    between atoms: _258  and  _260
REMARK  107  A    between atoms: _260  and  _261
REMARK  108  A    between atoms: _263  and  _265
REMARK  109  A    between atoms: _265  and  _266
REMARK  110  A    between atoms: _265  and  _268
REMARK  111  A    between atoms: _268  and  _269
REMARK  112  A    between atoms: _269  and  _270
REMARK  113  A    between atoms: _270  and  _271
REMARK  114  A    between atoms: _280  and  _282
REMARK  115  A    between atoms: _282  and  _283
REMARK  116  A    between atoms: _282  and  _285
REMARK  117  A    between atoms: _285  and  _286
REMARK  118  A    between atoms: _291  and  _293
REMARK  119  A    between atoms: _293  and  _294
REMARK  120  A    between atoms: _293  and  _296
REMARK  121  A    between atoms: _296  and  _297
REMARK  122  A    between atoms: _297  and  _298
REMARK  123  A    between atoms: _298  and  _299
REMARK  124  A    between atoms: _308  and  _310
REMARK  125  A    between atoms: _310  and  _311
REMARK  126  A    between atoms: _310  and  _313
REMARK  127  A    between atoms: _313  and  _314
REMARK  128  A    between atoms: _317  and  _319
REMARK  129  A    between atoms: _319  and  _320
REMARK  130  A    between atoms: _319  and  _322
REMARK  131  A    between atoms: _322  and  _323
REMARK  132  A    between atoms: _326  and  _328
REMARK  133  A    between atoms: _328  and  _329
REMARK  134  A    between atoms: _328  and  _331
REMARK  135  A    between atoms: _331  and  _332
REMARK  136  A    between atoms: _335  and  _337
REMARK  137  A    between atoms: _337  and  _338
REMARK  138  A    between atoms: _337  and  _340
REMARK  139  A    between atoms: _340  and  _341
REMARK  140  A    between atoms: _344  and  _346
REMARK  141  A    between atoms: _346  and  _347
REMARK  142  A    between atoms: _349  and  _351
REMARK  143  A    between atoms: _351  and  _352
REMARK  144  A    between atoms: _355  and  _357
REMARK  145  A    between atoms: _357  and  _358
REMARK  146  A    between atoms: _357  and  _360
REMARK  147  A    between atoms: _360  and  _361
REMARK  148  A    between atoms: _364  and  _366
REMARK  149  A    between atoms: _366  and  _367
REMARK  150  A    between atoms: _366  and  _369
REMARK  151  A    between atoms: _369  and  _370
REMARK  152  A    between atoms: _373  and  _375
REMARK  153  A    between atoms: _375  and  _376
REMARK  154  A    between atoms: _375  and  _378
REMARK  155  A    between atoms: _378  and  _379
REMARK  156  A    between atoms: _382  and  _384
REMARK  157  A    between atoms: _384  and  _385
REMARK  158  A    between atoms: _384  and  _387
REMARK  159  A    between atoms: _390  and  _392
REMARK  160  A    between atoms: _392  and  _393
REMARK  161  A    between atoms: _392  and  _395
REMARK  162  A    between atoms: _395  and  _396
REMARK  163  A    between atoms: _399  and  _401
REMARK  164  A    between atoms: _401  and  _402
REMARK  165  A    between atoms: _401  and  _404
REMARK  166  A    between atoms: _404  and  _405
REMARK  167  A    between atoms: _405  and  _406
REMARK  168  A    between atoms: _406  and  _407
REMARK  169  A    between atoms: _407  and  _408
REMARK  170  A    between atoms: _412  and  _414
REMARK  171  A    between atoms: _414  and  _415
REMARK  172  A    between atoms: _414  and  _417
REMARK  173  A    between atoms: _417  and  _418
REMARK  174  A    between atoms: _418  and  _419
REMARK  175  A    between atoms: _421  and  _423
REMARK  176  A    between atoms: _423  and  _424
REMARK  177  A    between atoms: _423  and  _426
REMARK  178  A    between atoms: _426  and  _427
REMARK  179  A    between atoms: _430  and  _432
REMARK  180  A    between atoms: _432  and  _433
REMARK  181  A    between atoms: _435  and  _437
REMARK  182  A    between atoms: _437  and  _438
REMARK  183  A    between atoms: _440  and  _442
REMARK  184  A    between atoms: _442  and  _443
REMARK  185  A    between atoms: _442  and  _445
REMARK  186  A    between atoms: _445  and  _446
REMARK  187  A    between atoms: _449  and  _451
REMARK  188  A    between atoms: _451  and  _452
REMARK  189  A    between atoms: _454  and  _456
REMARK  190  A    between atoms: _456  and  _457
REMARK  191  A    between atoms: _459  and  _461
REMARK  192  A    between atoms: _461  and  _462
REMARK  193  A    between atoms: _461  and  _464
REMARK  194  A    between atoms: _464  and  _465
REMARK  195  A    between atoms: _471  and  _473
REMARK  196  A    between atoms: _473  and  _474
REMARK  197  A    between atoms: _473  and  _476
REMARK  198  A    between atoms: _476  and  _477
REMARK  199  A    between atoms: _477  and  _478
REMARK  200  A    between atoms: _480  and  _482
REMARK  201  A    between atoms: _482  and  _483
REMARK  202  A    between atoms: _482  and  _485
REMARK  203  A    between atoms: _488  and  _490
REMARK  204  A    between atoms: _490  and  _491
REMARK  205  A    between atoms: _490  and  _493
REMARK  206  A    between atoms: _493  and  _494
REMARK  207  A    between atoms: _497  and  _499
REMARK  208  A    between atoms: _499  and  _500
REMARK  209  A    between atoms: _499  and  _502
REMARK  210  A    between atoms: _502  and  _503
REMARK  211  A    between atoms: _507  and  _508
REMARK  212  A    between atoms: _513  and  _515
REMARK  213  A    between atoms: _515  and  _516
REMARK  214  A    between atoms: _515  and  _518
REMARK  215  A    between atoms: _521  and  _523
REMARK  216  A    between atoms: _523  and  _524
REMARK  217  A    between atoms: _523  and  _526
REMARK  218  A    between atoms: _526  and  _527
REMARK  219  A    between atoms: _532  and  _534
REMARK  220  A    between atoms: _534  and  _535
REMARK  221  A    between atoms: _534  and  _537
REMARK  222  A    between atoms: _537  and  _538
REMARK  223  A    between atoms: _541  and  _543
REMARK  224  A    between atoms: _543  and  _544
REMARK  225  A    between atoms: _543  and  _546
REMARK  226  A    between atoms: _546  and  _547
REMARK  227  A    between atoms: _550  and  _552
REMARK  228  A    between atoms: _552  and  _553
REMARK  229  A    between atoms: _555  and  _557
REMARK  230  A    between atoms: _557  and  _558
REMARK  231  A    between atoms: _557  and  _560
REMARK  232  A    between atoms: _560  and  _561
REMARK  233  A    between atoms: _561  and  _562
REMARK  234  A    between atoms: _562  and  _563
REMARK  235  A    between atoms: _572  and  _574
REMARK  236  A    between atoms: _574  and  _575
REMARK  237  A    between atoms: _574  and  _577
REMARK  238  A    between atoms: _577  and  _578
REMARK                            x       y       z     vdW  Elec       q    Type
REMARK                         _______ _______ _______ _____ _____    ______ ____
ROOT
ATOM      1  O   HOH     1     -14.711 -26.660 -11.836  0.00  0.00    +0.000 OA
ENDROOT
TORSDOF 0
REMARK  Name = ../refined-set-2016/3nu6/3nu6_pocket.pdb
REMARK  238 active torsions:
REMARK  status: ('A' for Active; 'I' for Inactive)
REMARK    1  A    between atoms: _1  and  _3
REMARK    2  A    between atoms: _3  and  _4
REMARK    3  A    between atoms: _3  and  _6
REMARK    4  A    between atoms: _6  and  _7
REMARK    5  A    between atoms: _7  and  _8
REMARK    6  A    between atoms: _8  and  _9
REMARK    7  A    between atoms: _18  and  _20
REMARK    8  A    between atoms: _20  and  _21
REMARK    9  A    between atoms: _20  and  _23
REMARK   10  A    between atoms: _23  and  _24
REMARK   11  A    between atoms: _27  and  _29
REMARK   12  A    between atoms: _29  and  _30
REMARK   13  A    between atoms: _29  and  _32
REMARK   14  A    between atoms: _32  and  _33
REMARK   15  A    between atoms: _36  and  _38
REMARK   16  A    between atoms: _38  and  _39
REMARK   17  A    between atoms: _38  and  _41
REMARK   18  A    between atoms: _41  and  _42
REMARK   19  A    between atoms: _45  and  _47
REMARK   20  A    between atoms: _47  and  _48
REMARK   21  A    between atoms: _47  and  _50
REMARK   22  A    between atoms: _50  and  _51
REMARK   23  A    between atoms: _54  and  _56
REMARK   24  A    between atoms: _56  and  _57
REMARK   25  A    between atoms: _59  and  _61
REMARK   26  A    between atoms: _61  and  _62
REMARK   27  A    between atoms: _65  and  _67
REMARK   28  A    between atoms: _67  and  _68
REMARK   29  A    between atoms: _67  and  _70
REMARK   30  A    between atoms: _70  and  _71
REMARK   31  A    between atoms: _74  and  _76
REMARK   32  A    between atoms: _76  and  _77
REMARK   33  A    between atoms: _76  and  _79
REMARK   34  A    between atoms: _79  and  _80
REMARK   35  A    between atoms: _83  and  _85
REMARK   36  A    between atoms: _85  and  _86
REMARK   37  A    between atoms: _85  and  _88
REMARK   38  A    between atoms: _88  and  _89
REMARK   39  A    between atoms: _92  and  _94
REMARK   40  A    between atoms: _94  and  _95
REMARK   41  A    between atoms: _94  and  _97
REMARK   42  A    between atoms: _100  and  _102
REMARK   43  A    between atoms: _102  and  _103
REMARK   44  A    between atoms: _102  and  _105
REMARK   45  A    between atoms: _106  and  _107
REMARK   46  A    between atoms: _107  and  _108
REMARK   47  A    between atoms: _108  and  _109
REMARK   48  A    between atoms: _113  and  _115
REMARK   49  A    between atoms: _115  and  _116
REMARK   50  A    between atoms: _115  and  _118
REMARK   51  A    between atoms: _118  and  _119
REMARK   52  A    between atoms: _119  and  _120
REMARK   53  A    between atoms: _122  and  _124
REMARK   54  A    between atoms: _124  and  _125
REMARK   55  A    between atoms: _124  and  _127
REMARK   56  A    between atoms: _127  and  _128
REMARK   57  A    between atoms: _131  and  _133
REMARK   58  A    between atoms: _133  and  _134
REMARK   59  A    between atoms: _136  and  _138
REMARK   60  A    between atoms: _138  and  _139
REMARK   61  A    between atoms: _141  and  _143
REMARK   62  A    between atoms: _143  and  _144
REMARK   63  A    between atoms: _143  and  _146
REMARK   64  A    between atoms: _146  and  _147
REMARK   65  A    between atoms: _150  and  _152
REMARK   66  A    between atoms: _152  and  _153
REMARK   67  A    between atoms: _155  and  _157
REMARK   68  A    between atoms: _157  and  _158
REMARK   69  A    between atoms: _160  and  _162
REMARK   70  A    between atoms: _162  and  _163
REMARK   71  A    between atoms: _162  and  _165
REMARK   72  A    between atoms: _165  and  _166
REMARK   73  A    between atoms: _172  and  _174
REMARK   74  A    between atoms: _174  and  _175
REMARK   75  A    between atoms: _174  and  _177
REMARK   76  A    between atoms: _177  and  _178
REMARK   77  A    between atoms: _178  and  _179
REMARK   78  A    between atoms: _181  and  _183
REMARK   79  A    between atoms: _183  and  _184
REMARK   80  A    between atoms: _183  and  _186
REMARK   81  A    between atoms: _189  and  _191
REMARK   82  A    between atoms: _191  and  _192
REMARK   83  A    between atoms: _191  and  _194
REMARK   84  A    between atoms: _194  and  _195
REMARK   85  A    between atoms: _199  and  _200
REMARK   86  A    between atoms: _205  and  _207
REMARK   87  A    between atoms: _207  and  _208
REMARK   88  A    between atoms: _207  and  _210
REMARK   89  A    between atoms: _210  and  _211
REMARK   90  A    between atoms: _215  and  _216
REMARK   91  A    between atoms: _221  and  _223
REMARK   92  A    between atoms: _223  and  _224
REMARK   93  A    between atoms: _223  and  _226
REMARK   94  A    between atoms: _229  and  _231
REMARK   95  A    between atoms: _231  and  _232
REMARK   96  A    between atoms: _231  and  _234
REMARK   97  A    between atoms: _234  and  _235
REMARK   98  A    between atoms: _240  and  _242
REMARK   99  A    between atoms: _242  and  _243
REMARK  100  A    between atoms: _242  and  _245
REMARK  101  A    between atoms: _245  and  _246
REMARK  102  A    between atoms: _249  and  _251
REMARK  103  A    between atoms: _251  and  _252
REMARK  104  A    between atoms: _251  and  _254
REMARK  105  A    between atoms: _254  and  _255
REMARK  106  A    between atoms: _258  and  _260
REMARK  107  A    between atoms: _260  and  _261
REMARK  108  A    between atoms: _263  and  _265
REMARK  109  A    between atoms: _265  and  _266
REMARK  110  A    between atoms: _265  and  _268
REMARK  111  A    between atoms: _268  and  _269
REMARK  112  A    between atoms: _269  and  _270
REMARK  113  A    between atoms: _270  and  _271
REMARK  114  A    between atoms: _280  and  _282
REMARK  115  A    between atoms: _282  and  _283
REMARK  116  A    between atoms: _282  and  _285
REMARK  117  A    between atoms: _285  and  _286
REMARK  118  A    between atoms: _291  and  _293
REMARK  119  A    between atoms: _293  and  _294
REMARK  120  A    between atoms: _293  and  _296
REMARK  121  A    between atoms: _296  and  _297
REMARK  122  A    between atoms: _297  and  _298
REMARK  123  A    between atoms: _298  and  _299
REMARK  124  A    between atoms: _308  and  _310
REMARK  125  A    between atoms: _310  and  _311
REMARK  126  A    between atoms: _310  and  _313
REMARK  127  A    between atoms: _313  and  _314
REMARK  128  A    between atoms: _317  and  _319
REMARK  129  A    between atoms: _319  and  _320
REMARK  130  A    between atoms: _319  and  _322
REMARK  131  A    between atoms: _322  and  _323
REMARK  132  A    between atoms: _326  and  _328
REMARK  133  A    between atoms: _328  and  _329
REMARK  134  A    between atoms: _328  and  _331
REMARK  135  A    between atoms: _331  and  _332
REMARK  136  A    between atoms: _335  and  _337
REMARK  137  A    between atoms: _337  and  _338
REMARK  138  A    between atoms: _337  and  _340
REMARK  139  A    between atoms: _340  and  _341
REMARK  140  A    between atoms: _344  and  _346
REMARK  141  A    between atoms: _346  and  _347
REMARK  142  A    between atoms: _349  and  _351
REMARK  143  A    between atoms: _351  and  _352
REMARK  144  A    between atoms: _355  and  _357
REMARK  145  A    between atoms: _357  and  _358
REMARK  146  A    between atoms: _357  and  _360
REMARK  147  A    between atoms: _360  and  _361
REMARK  148  A    between atoms: _364  and  _366
REMARK  149  A    between atoms: _366  and  _367
REMARK  150  A    between atoms: _366  and  _369
REMARK  151  A    between atoms: _369  and  _370
REMARK  152  A    between atoms: _373  and  _375
REMARK  153  A    between atoms: _375  and  _376
REMARK  154  A    between atoms: _375  and  _378
REMARK  155  A    between atoms: _378  and  _379
REMARK  156  A    between atoms: _382  and  _384
REMARK  157  A    between atoms: _384  and  _385
REMARK  158  A    between atoms: _384  and  _387
REMARK  159  A    between atoms: _390  and  _392
REMARK  160  A    between atoms: _392  and  _393
REMARK  161  A    between atoms: _392  and  _395
REMARK  162  A    between atoms: _395  and  _396
REMARK  163  A    between atoms: _399  and  _401
REMARK  164  A    between atoms: _401  and  _402
REMARK  165  A    between atoms: _401  and  _404
REMARK  166  A    between atoms: _404  and  _405
REMARK  167  A    between atoms: _405  and  _406
REMARK  168  A    between atoms: _406  and  _407
REMARK  169  A    between atoms: _407  and  _408
REMARK  170  A    between atoms: _412  and  _414
REMARK  171  A    between atoms: _414  and  _415
REMARK  172  A    between atoms: _414  and  _417
REMARK  173  A    between atoms: _417  and  _418
REMARK  174  A    between atoms: _418  and  _419
REMARK  175  A    between atoms: _421  and  _423
REMARK  176  A    between atoms: _423  and  _424
REMARK  177  A    between atoms: _423  and  _426
REMARK  178  A    between atoms: _426  and  _427
REMARK  179  A    between atoms: _430  and  _432
REMARK  180  A    between atoms: _432  and  _433
REMARK  181  A    between atoms: _435  and  _437
REMARK  182  A    between atoms: _437  and  _438
REMARK  183  A    between atoms: _440  and  _442
REMARK  184  A    between atoms: _442  and  _443
REMARK  185  A    between atoms: _442  and  _445
REMARK  186  A    between atoms: _445  and  _446
REMARK  187  A    between atoms: _449  and  _451
REMARK  188  A    between atoms: _451  and  _452
REMARK  189  A    between atoms: _454  and  _456
REMARK  190  A    between atoms: _456  and  _457
REMARK  191  A    between atoms: _459  and  _461
REMARK  192  A    between atoms: _461  and  _462
REMARK  193  A    between atoms: _461  and  _464
REMARK  194  A    between atoms: _464  and  _465
REMARK  195  A    between atoms: _471  and  _473
REMARK  196  A    between atoms: _473  and  _474
REMARK  197  A    between atoms: _473  and  _476
REMARK  198  A    between atoms: _476  and  _477
REMARK  199  A    between atoms: _477  and  _478
REMARK  200  A    between atoms: _480  and  _482
REMARK  201  A    between atoms: _482  and  _483
REMARK  202  A    between atoms: _482  and  _485
REMARK  203  A    between atoms: _488  and  _490
REMARK  204  A    between atoms: _490  and  _491
REMARK  205  A    between atoms: _490  and  _493
REMARK  206  A    between atoms: _493  and  _494
REMARK  207  A    between atoms: _497  and  _499
REMARK  208  A    between atoms: _499  and  _500
REMARK  209  A    between atoms: _499  and  _502
REMARK  210  A    between atoms: _502  and  _503
REMARK  211  A    between atoms: _507  and  _508
REMARK  212  A    between atoms: _513  and  _515
REMARK  213  A    between atoms: _515  and  _516
REMARK  214  A    between atoms: _515  and  _518
REMARK  215  A    between atoms: _521  and  _523
REMARK  216  A    between atoms: _523  and  _524
REMARK  217  A    between atoms: _523  and  _526
REMARK  218  A    between atoms: _526  and  _527
REMARK  219  A    between atoms: _532  and  _534
REMARK  220  A    between atoms: _534  and  _535
REMARK  221  A    between atoms: _534  and  _537
REMARK  222  A    between atoms: _537  and  _538
REMARK  223  A    between atoms: _541  and  _543
REMARK  224  A    between atoms: _543  and  _544
REMARK  225  A    between atoms: _543  and  _546
REMARK  226  A    between atoms: _546  and  _547
REMARK  227  A    between atoms: _550  and  _552
REMARK  228  A    between atoms: _552  and  _553
REMARK  229  A    between atoms: _555  and  _557
REMARK  230  A    between atoms: _557  and  _558
REMARK  231  A    between atoms: _557  and  _560
REMARK  232  A    between atoms: _560  and  _561
REMARK  233  A    between atoms: _561  and  _562
REMARK  234  A    between atoms: _562  and  _563
REMARK  235  A    between atoms: _572  and  _574
REMARK  236  A    between atoms: _574  and  _575
REMARK  237  A    between atoms: _574  and  _577
REMARK  238  A    between atoms: _577  and  _578
REMARK                            x       y       z     vdW  Elec       q    Type
REMARK                         _______ _______ _______ _____ _____    ______ ____
ROOT
ATOM      1  O   HOH     1     -23.233 -15.038 -25.981  0.00  0.00    +0.000 OA
ENDROOT
TORSDOF 0
REMARK  Name = ../refined-set-2016/3nu6/3nu6_pocket.pdb
REMARK  238 active torsions:
REMARK  status: ('A' for Active; 'I' for Inactive)
REMARK    1  A    between atoms: _1  and  _3
REMARK    2  A    between atoms: _3  and  _4
REMARK    3  A    between atoms: _3  and  _6
REMARK    4  A    between atoms: _6  and  _7
REMARK    5  A    between atoms: _7  and  _8
REMARK    6  A    between atoms: _8  and  _9
REMARK    7  A    between atoms: _18  and  _20
REMARK    8  A    between atoms: _20  and  _21
REMARK    9  A    between atoms: _20  and  _23
REMARK   10  A    between atoms: _23  and  _24
REMARK   11  A    between atoms: _27  and  _29
REMARK   12  A    between atoms: _29  and  _30
REMARK   13  A    between atoms: _29  and  _32
REMARK   14  A    between atoms: _32  and  _33
REMARK   15  A    between atoms: _36  and  _38
REMARK   16  A    between atoms: _38  and  _39
REMARK   17  A    between atoms: _38  and  _41
REMARK   18  A    between atoms: _41  and  _42
REMARK   19  A    between atoms: _45  and  _47
REMARK   20  A    between atoms: _47  and  _48
REMARK   21  A    between atoms: _47  and  _50
REMARK   22  A    between atoms: _50  and  _51
REMARK   23  A    between atoms: _54  and  _56
REMARK   24  A    between atoms: _56  and  _57
REMARK   25  A    between atoms: _59  and  _61
REMARK   26  A    between atoms: _61  and  _62
REMARK   27  A    between atoms: _65  and  _67
REMARK   28  A    between atoms: _67  and  _68
REMARK   29  A    between atoms: _67  and  _70
REMARK   30  A    between atoms: _70  and  _71
REMARK   31  A    between atoms: _74  and  _76
REMARK   32  A    between atoms: _76  and  _77
REMARK   33  A    between atoms: _76  and  _79
REMARK   34  A    between atoms: _79  and  _80
REMARK   35  A    between atoms: _83  and  _85
REMARK   36  A    between atoms: _85  and  _86
REMARK   37  A    between atoms: _85  and  _88
REMARK   38  A    between atoms: _88  and  _89
REMARK   39  A    between atoms: _92  and  _94
REMARK   40  A    between atoms: _94  and  _95
REMARK   41  A    between atoms: _94  and  _97
REMARK   42  A    between atoms: _100  and  _102
REMARK   43  A    between atoms: _102  and  _103
REMARK   44  A    between atoms: _102  and  _105
REMARK   45  A    between atoms: _106  and  _107
REMARK   46  A    between atoms: _107  and  _108
REMARK   47  A    between atoms: _108  and  _109
REMARK   48  A    between atoms: _113  and  _115
REMARK   49  A    between atoms: _115  and  _116
REMARK   50  A    between atoms: _115  and  _118
REMARK   51  A    between atoms: _118  and  _119
REMARK   52  A    between atoms: _119  and  _120
REMARK   53  A    between atoms: _122  and  _124
REMARK   54  A    between atoms: _124  and  _125
REMARK   55  A    between atoms: _124  and  _127
REMARK   56  A    between atoms: _127  and  _128
REMARK   57  A    between atoms: _131  and  _133
REMARK   58  A    between atoms: _133  and  _134
REMARK   59  A    between atoms: _136  and  _138
REMARK   60  A    between atoms: _138  and  _139
REMARK   61  A    between atoms: _141  and  _143
REMARK   62  A    between atoms: _143  and  _144
REMARK   63  A    between atoms: _143  and  _146
REMARK   64  A    between atoms: _146  and  _147
REMARK   65  A    between atoms: _150  and  _152
REMARK   66  A    between atoms: _152  and  _153
REMARK   67  A    between atoms: _155  and  _157
REMARK   68  A    between atoms: _157  and  _158
REMARK   69  A    between atoms: _160  and  _162
REMARK   70  A    between atoms: _162  and  _163
REMARK   71  A    between atoms: _162  and  _165
REMARK   72  A    between atoms: _165  and  _166
REMARK   73  A    between atoms: _172  and  _174
REMARK   74  A    between atoms: _174  and  _175
REMARK   75  A    between atoms: _174  and  _177
REMARK   76  A    between atoms: _177  and  _178
REMARK   77  A    between atoms: _178  and  _179
REMARK   78  A    between atoms: _181  and  _183
REMARK   79  A    between atoms: _183  and  _184
REMARK   80  A    between atoms: _183  and  _186
REMARK   81  A    between atoms: _189  and  _191
REMARK   82  A    between atoms: _191  and  _192
REMARK   83  A    between atoms: _191  and  _194
REMARK   84  A    between atoms: _194  and  _195
REMARK   85  A    between atoms: _199  and  _200
REMARK   86  A    between atoms: _205  and  _207
REMARK   87  A    between atoms: _207  and  _208
REMARK   88  A    between atoms: _207  and  _210
REMARK   89  A    between atoms: _210  and  _211
REMARK   90  A    between atoms: _215  and  _216
REMARK   91  A    between atoms: _221  and  _223
REMARK   92  A    between atoms: _223  and  _224
REMARK   93  A    between atoms: _223  and  _226
REMARK   94  A    between atoms: _229  and  _231
REMARK   95  A    between atoms: _231  and  _232
REMARK   96  A    between atoms: _231  and  _234
REMARK   97  A    between atoms: _234  and  _235
REMARK   98  A    between atoms: _240  and  _242
REMARK   99  A    between atoms: _242  and  _243
REMARK  100  A    between atoms: _242  and  _245
REMARK  101  A    between atoms: _245  and  _246
REMARK  102  A    between atoms: _249  and  _251
REMARK  103  A    between atoms: _251  and  _252
REMARK  104  A    between atoms: _251  and  _254
REMARK  105  A    between atoms: _254  and  _255
REMARK  106  A    between atoms: _258  and  _260
REMARK  107  A    between atoms: _260  and  _261
REMARK  108  A    between atoms: _263  and  _265
REMARK  109  A    between atoms: _265  and  _266
REMARK  110  A    between atoms: _265  and  _268
REMARK  111  A    between atoms: _268  and  _269
REMARK  112  A    between atoms: _269  and  _270
REMARK  113  A    between atoms: _270  and  _271
REMARK  114  A    between atoms: _280  and  _282
REMARK  115  A    between atoms: _282  and  _283
REMARK  116  A    between atoms: _282  and  _285
REMARK  117  A    between atoms: _285  and  _286
REMARK  118  A    between atoms: _291  and  _293
REMARK  119  A    between atoms: _293  and  _294
REMARK  120  A    between atoms: _293  and  _296
REMARK  121  A    between atoms: _296  and  _297
REMARK  122  A    between atoms: _297  and  _298
REMARK  123  A    between atoms: _298  and  _299
REMARK  124  A    between atoms: _308  and  _310
REMARK  125  A    between atoms: _310  and  _311
REMARK  126  A    between atoms: _310  and  _313
REMARK  127  A    between atoms: _313  and  _314
REMARK  128  A    between atoms: _317  and  _319
REMARK  129  A    between atoms: _319  and  _320
REMARK  130  A    between atoms: _319  and  _322
REMARK  131  A    between atoms: _322  and  _323
REMARK  132  A    between atoms: _326  and  _328
REMARK  133  A    between atoms: _328  and  _329
REMARK  134  A    between atoms: _328  and  _331
REMARK  135  A    between atoms: _331  and  _332
REMARK  136  A    between atoms: _335  and  _337
REMARK  137  A    between atoms: _337  and  _338
REMARK  138  A    between atoms: _337  and  _340
REMARK  139  A    between atoms: _340  and  _341
REMARK  140  A    between atoms: _344  and  _346
REMARK  141  A    between atoms: _346  and  _347
REMARK  142  A    between atoms: _349  and  _351
REMARK  143  A    between atoms: _351  and  _352
REMARK  144  A    between atoms: _355  and  _357
REMARK  145  A    between atoms: _357  and  _358
REMARK  146  A    between atoms: _357  and  _360
REMARK  147  A    between atoms: _360  and  _361
REMARK  148  A    between atoms: _364  and  _366
REMARK  149  A    between atoms: _366  and  _367
REMARK  150  A    between atoms: _366  and  _369
REMARK  151  A    between atoms: _369  and  _370
REMARK  152  A    between atoms: _373  and  _375
REMARK  153  A    between atoms: _375  and  _376
REMARK  154  A    between atoms: _375  and  _378
REMARK  155  A    between atoms: _378  and  _379
REMARK  156  A    between atoms: _382  and  _384
REMARK  157  A    between atoms: _384  and  _385
REMARK  158  A    between atoms: _384  and  _387
REMARK  159  A    between atoms: _390  and  _392
REMARK  160  A    between atoms: _392  and  _393
REMARK  161  A    between atoms: _392  and  _395
REMARK  162  A    between atoms: _395  and  _396
REMARK  163  A    between atoms: _399  and  _401
REMARK  164  A    between atoms: _401  and  _402
REMARK  165  A    between atoms: _401  and  _404
REMARK  166  A    between atoms: _404  and  _405
REMARK  167  A    between atoms: _405  and  _406
REMARK  168  A    between atoms: _406  and  _407
REMARK  169  A    between atoms: _407  and  _408
REMARK  170  A    between atoms: _412  and  _414
REMARK  171  A    between atoms: _414  and  _415
REMARK  172  A    between atoms: _414  and  _417
REMARK  173  A    between atoms: _417  and  _418
REMARK  174  A    between atoms: _418  and  _419
REMARK  175  A    between atoms: _421  and  _423
REMARK  176  A    between atoms: _423  and  _424
REMARK  177  A    between atoms: _423  and  _426
REMARK  178  A    between atoms: _426  and  _427
REMARK  179  A    between atoms: _430  and  _432
REMARK  180  A    between atoms: _432  and  _433
REMARK  181  A    between atoms: _435  and  _437
REMARK  182  A    between atoms: _437  and  _438
REMARK  183  A    between atoms: _440  and  _442
REMARK  184  A    between atoms: _442  and  _443
REMARK  185  A    between atoms: _442  and  _445
REMARK  186  A    between atoms: _445  and  _446
REMARK  187  A    between atoms: _449  and  _451
REMARK  188  A    between atoms: _451  and  _452
REMARK  189  A    between atoms: _454  and  _456
REMARK  190  A    between atoms: _456  and  _457
REMARK  191  A    between atoms: _459  and  _461
REMARK  192  A    between atoms: _461  and  _462
REMARK  193  A    between atoms: _461  and  _464
REMARK  194  A    between atoms: _464  and  _465
REMARK  195  A    between atoms: _471  and  _473
REMARK  196  A    between atoms: _473  and  _474
REMARK  197  A    between atoms: _473  and  _476
REMARK  198  A    between atoms: _476  and  _477
REMARK  199  A    between atoms: _477  and  _478
REMARK  200  A    between atoms: _480  and  _482
REMARK  201  A    between atoms: _482  and  _483
REMARK  202  A    between atoms: _482  and  _485
REMARK  203  A    between atoms: _488  and  _490
REMARK  204  A    between atoms: _490  and  _491
REMARK  205  A    between atoms: _490  and  _493
REMARK  206  A    between atoms: _493  and  _494
REMARK  207  A    between atoms: _497  and  _499
REMARK  208  A    between atoms: _499  and  _500
REMARK  209  A    between atoms: _499  and  _502
REMARK  210  A    between atoms: _502  and  _503
REMARK  211  A    between atoms: _507  and  _508
REMARK  212  A    between atoms: _513  and  _515
REMARK  213  A    between atoms: _515  and  _516
REMARK  214  A    between atoms: _515  and  _518
REMARK  215  A    between atoms: _521  and  _523
REMARK  216  A    between atoms: _523  and  _524
REMARK  217  A    between atoms: _523  and  _526
REMARK  218  A    between atoms: _526  and  _527
REMARK  219  A    between atoms: _532  and  _534
REMARK  220  A    between atoms: _534  and  _535
REMARK  221  A    between atoms: _534  and  _537
REMARK  222  A    between atoms: _537  and  _538
REMARK  223  A    between atoms: _541  and  _543
REMARK  224  A    between atoms: _543  and  _544
REMARK  225  A    between atoms: _543  and  _546
REMARK  226  A    between atoms: _546  and  _547
REMARK  227  A    between atoms: _550  and  _552
REMARK  228  A    between atoms: _552  and  _553
REMARK  229  A    between atoms: _555  and  _557
REMARK  230  A    between atoms: _557  and  _558
REMARK  231  A    between atoms: _557  and  _560
REMARK  232  A    between atoms: _560  and  _561
REMARK  233  A    between atoms: _561  and  _562
REMARK  234  A    between atoms: _562  and  _563
REMARK  235  A    between atoms: _572  and  _574
REMARK  236  A    between atoms: _574  and  _575
REMARK  237  A    between atoms: _574  and  _577
REMARK  238  A    between atoms: _577  and  _578
REMARK                            x       y       z     vdW  Elec       q    Type
REMARK                         _______ _______ _______ _____ _____    ______ ____
ROOT
ATOM      1  O   HOH     1     -11.134 -24.816 -16.047  0.00  0.00    +0.000 OA
ENDROOT
TORSDOF 0
REMARK  Name = ../refined-set-2016/3nu6/3nu6_pocket.pdb
REMARK  238 active torsions:
REMARK  status: ('A' for Active; 'I' for Inactive)
REMARK    1  A    between atoms: _1  and  _3
REMARK    2  A    between atoms: _3  and  _4
REMARK    3  A    between atoms: _3  and  _6
REMARK    4  A    between atoms: _6  and  _7
REMARK    5  A    between atoms: _7  and  _8
REMARK    6  A    between atoms: _8  and  _9
REMARK    7  A    between atoms: _18  and  _20
REMARK    8  A    between atoms: _20  and  _21
REMARK    9  A    between atoms: _20  and  _23
REMARK   10  A    between atoms: _23  and  _24
REMARK   11  A    between atoms: _27  and  _29
REMARK   12  A    between atoms: _29  and  _30
REMARK   13  A    between atoms: _29  and  _32
REMARK   14  A    between atoms: _32  and  _33
REMARK   15  A    between atoms: _36  and  _38
REMARK   16  A    between atoms: _38  and  _39
REMARK   17  A    between atoms: _38  and  _41
REMARK   18  A    between atoms: _41  and  _42
REMARK   19  A    between atoms: _45  and  _47
REMARK   20  A    between atoms: _47  and  _48
REMARK   21  A    between atoms: _47  and  _50
REMARK   22  A    between atoms: _50  and  _51
REMARK   23  A    between atoms: _54  and  _56
REMARK   24  A    between atoms: _56  and  _57
REMARK   25  A    between atoms: _59  and  _61
REMARK   26  A    between atoms: _61  and  _62
REMARK   27  A    between atoms: _65  and  _67
REMARK   28  A    between atoms: _67  and  _68
REMARK   29  A    between atoms: _67  and  _70
REMARK   30  A    between atoms: _70  and  _71
REMARK   31  A    between atoms: _74  and  _76
REMARK   32  A    between atoms: _76  and  _77
REMARK   33  A    between atoms: _76  and  _79
REMARK   34  A    between atoms: _79  and  _80
REMARK   35  A    between atoms: _83  and  _85
REMARK   36  A    between atoms: _85  and  _86
REMARK   37  A    between atoms: _85  and  _88
REMARK   38  A    between atoms: _88  and  _89
REMARK   39  A    between atoms: _92  and  _94
REMARK   40  A    between atoms: _94  and  _95
REMARK   41  A    between atoms: _94  and  _97
REMARK   42  A    between atoms: _100  and  _102
REMARK   43  A    between atoms: _102  and  _103
REMARK   44  A    between atoms: _102  and  _105
REMARK   45  A    between atoms: _106  and  _107
REMARK   46  A    between atoms: _107  and  _108
REMARK   47  A    between atoms: _108  and  _109
REMARK   48  A    between atoms: _113  and  _115
REMARK   49  A    between atoms: _115  and  _116
REMARK   50  A    between atoms: _115  and  _118
REMARK   51  A    between atoms: _118  and  _119
REMARK   52  A    between atoms: _119  and  _120
REMARK   53  A    between atoms: _122  and  _124
REMARK   54  A    between atoms: _124  and  _125
REMARK   55  A    between atoms: _124  and  _127
REMARK   56  A    between atoms: _127  and  _128
REMARK   57  A    between atoms: _131  and  _133
REMARK   58  A    between atoms: _133  and  _134
REMARK   59  A    between atoms: _136  and  _138
REMARK   60  A    between atoms: _138  and  _139
REMARK   61  A    between atoms: _141  and  _143
REMARK   62  A    between atoms: _143  and  _144
REMARK   63  A    between atoms: _143  and  _146
REMARK   64  A    between atoms: _146  and  _147
REMARK   65  A    between atoms: _150  and  _152
REMARK   66  A    between atoms: _152  and  _153
REMARK   67  A    between atoms: _155  and  _157
REMARK   68  A    between atoms: _157  and  _158
REMARK   69  A    between atoms: _160  and  _162
REMARK   70  A    between atoms: _162  and  _163
REMARK   71  A    between atoms: _162  and  _165
REMARK   72  A    between atoms: _165  and  _166
REMARK   73  A    between atoms: _172  and  _174
REMARK   74  A    between atoms: _174  and  _175
REMARK   75  A    between atoms: _174  and  _177
REMARK   76  A    between atoms: _177  and  _178
REMARK   77  A    between atoms: _178  and  _179
REMARK   78  A    between atoms: _181  and  _183
REMARK   79  A    between atoms: _183  and  _184
REMARK   80  A    between atoms: _183  and  _186
REMARK   81  A    between atoms: _189  and  _191
REMARK   82  A    between atoms: _191  and  _192
REMARK   83  A    between atoms: _191  and  _194
REMARK   84  A    between atoms: _194  and  _195
REMARK   85  A    between atoms: _199  and  _200
REMARK   86  A    between atoms: _205  and  _207
REMARK   87  A    between atoms: _207  and  _208
REMARK   88  A    between atoms: _207  and  _210
REMARK   89  A    between atoms: _210  and  _211
REMARK   90  A    between atoms: _215  and  _216
REMARK   91  A    between atoms: _221  and  _223
REMARK   92  A    between atoms: _223  and  _224
REMARK   93  A    between atoms: _223  and  _226
REMARK   94  A    between atoms: _229  and  _231
REMARK   95  A    between atoms: _231  and  _232
REMARK   96  A    between atoms: _231  and  _234
REMARK   97  A    between atoms: _234  and  _235
REMARK   98  A    between atoms: _240  and  _242
REMARK   99  A    between atoms: _242  and  _243
REMARK  100  A    between atoms: _242  and  _245
REMARK  101  A    between atoms: _245  and  _246
REMARK  102  A    between atoms: _249  and  _251
REMARK  103  A    between atoms: _251  and  _252
REMARK  104  A    between atoms: _251  and  _254
REMARK  105  A    between atoms: _254  and  _255
REMARK  106  A    between atoms: _258  and  _260
REMARK  107  A    between atoms: _260  and  _261
REMARK  108  A    between atoms: _263  and  _265
REMARK  109  A    between atoms: _265  and  _266
REMARK  110  A    between atoms: _265  and  _268
REMARK  111  A    between atoms: _268  and  _269
REMARK  112  A    between atoms: _269  and  _270
REMARK  113  A    between atoms: _270  and  _271
REMARK  114  A    between atoms: _280  and  _282
REMARK  115  A    between atoms: _282  and  _283
REMARK  116  A    between atoms: _282  and  _285
REMARK  117  A    between atoms: _285  and  _286
REMARK  118  A    between atoms: _291  and  _293
REMARK  119  A    between atoms: _293  and  _294
REMARK  120  A    between atoms: _293  and  _296
REMARK  121  A    between atoms: _296  and  _297
REMARK  122  A    between atoms: _297  and  _298
REMARK  123  A    between atoms: _298  and  _299
REMARK  124  A    between atoms: _308  and  _310
REMARK  125  A    between atoms: _310  and  _311
REMARK  126  A    between atoms: _310  and  _313
REMARK  127  A    between atoms: _313  and  _314
REMARK  128  A    between atoms: _317  and  _319
REMARK  129  A    between atoms: _319  and  _320
REMARK  130  A    between atoms: _319  and  _322
REMARK  131  A    between atoms: _322  and  _323
REMARK  132  A    between atoms: _326  and  _328
REMARK  133  A    between atoms: _328  and  _329
REMARK  134  A    between atoms: _328  and  _331
REMARK  135  A    between atoms: _331  and  _332
REMARK  136  A    between atoms: _335  and  _337
REMARK  137  A    between atoms: _337  and  _338
REMARK  138  A    between atoms: _337  and  _340
REMARK  139  A    between atoms: _340  and  _341
REMARK  140  A    between atoms: _344  and  _346
REMARK  141  A    between atoms: _346  and  _347
REMARK  142  A    between atoms: _349  and  _351
REMARK  143  A    between atoms: _351  and  _352
REMARK  144  A    between atoms: _355  and  _357
REMARK  145  A    between atoms: _357  and  _358
REMARK  146  A    between atoms: _357  and  _360
REMARK  147  A    between atoms: _360  and  _361
REMARK  148  A    between atoms: _364  and  _366
REMARK  149  A    between atoms: _366  and  _367
REMARK  150  A    between atoms: _366  and  _369
REMARK  151  A    between atoms: _369  and  _370
REMARK  152  A    between atoms: _373  and  _375
REMARK  153  A    between atoms: _375  and  _376
REMARK  154  A    between atoms: _375  and  _378
REMARK  155  A    between atoms: _378  and  _379
REMARK  156  A    between atoms: _382  and  _384
REMARK  157  A    between atoms: _384  and  _385
REMARK  158  A    between atoms: _384  and  _387
REMARK  159  A    between atoms: _390  and  _392
REMARK  160  A    between atoms: _392  and  _393
REMARK  161  A    between atoms: _392  and  _395
REMARK  162  A    between atoms: _395  and  _396
REMARK  163  A    between atoms: _399  and  _401
REMARK  164  A    between atoms: _401  and  _402
REMARK  165  A    between atoms: _401  and  _404
REMARK  166  A    between atoms: _404  and  _405
REMARK  167  A    between atoms: _405  and  _406
REMARK  168  A    between atoms: _406  and  _407
REMARK  169  A    between atoms: _407  and  _408
REMARK  170  A    between atoms: _412  and  _414
REMARK  171  A    between atoms: _414  and  _415
REMARK  172  A    between atoms: _414  and  _417
REMARK  173  A    between atoms: _417  and  _418
REMARK  174  A    between atoms: _418  and  _419
REMARK  175  A    between atoms: _421  and  _423
REMARK  176  A    between atoms: _423  and  _424
REMARK  177  A    between atoms: _423  and  _426
REMARK  178  A    between atoms: _426  and  _427
REMARK  179  A    between atoms: _430  and  _432
REMARK  180  A    between atoms: _432  and  _433
REMARK  181  A    between atoms: _435  and  _437
REMARK  182  A    between atoms: _437  and  _438
REMARK  183  A    between atoms: _440  and  _442
REMARK  184  A    between atoms: _442  and  _443
REMARK  185  A    between atoms: _442  and  _445
REMARK  186  A    between atoms: _445  and  _446
REMARK  187  A    between atoms: _449  and  _451
REMARK  188  A    between atoms: _451  and  _452
REMARK  189  A    between atoms: _454  and  _456
REMARK  190  A    between atoms: _456  and  _457
REMARK  191  A    between atoms: _459  and  _461
REMARK  192  A    between atoms: _461  and  _462
REMARK  193  A    between atoms: _461  and  _464
REMARK  194  A    between atoms: _464  and  _465
REMARK  195  A    between atoms: _471  and  _473
REMARK  196  A    between atoms: _473  and  _474
REMARK  197  A    between atoms: _473  and  _476
REMARK  198  A    between atoms: _476  and  _477
REMARK  199  A    between atoms: _477  and  _478
REMARK  200  A    between atoms: _480  and  _482
REMARK  201  A    between atoms: _482  and  _483
REMARK  202  A    between atoms: _482  and  _485
REMARK  203  A    between atoms: _488  and  _490
REMARK  204  A    between atoms: _490  and  _491
REMARK  205  A    between atoms: _490  and  _493
REMARK  206  A    between atoms: _493  and  _494
REMARK  207  A    between atoms: _497  and  _499
REMARK  208  A    between atoms: _499  and  _500
REMARK  209  A    between atoms: _499  and  _502
REMARK  210  A    between atoms: _502  and  _503
REMARK  211  A    between atoms: _507  and  _508
REMARK  212  A    between atoms: _513  and  _515
REMARK  213  A    between atoms: _515  and  _516
REMARK  214  A    between atoms: _515  and  _518
REMARK  215  A    between atoms: _521  and  _523
REMARK  216  A    between atoms: _523  and  _524
REMARK  217  A    between atoms: _523  and  _526
REMARK  218  A    between atoms: _526  and  _527
REMARK  219  A    between atoms: _532  and  _534
REMARK  220  A    between atoms: _534  and  _535
REMARK  221  A    between atoms: _534  and  _537
REMARK  222  A    between atoms: _537  and  _538
REMARK  223  A    between atoms: _541  and  _543
REMARK  224  A    between atoms: _543  and  _544
REMARK  225  A    between atoms: _543  and  _546
REMARK  226  A    between atoms: _546  and  _547
REMARK  227  A    between atoms: _550  and  _552
REMARK  228  A    between atoms: _552  and  _553
REMARK  229  A    between atoms: _555  and  _557
REMARK  230  A    between atoms: _557  and  _558
REMARK  231  A    between atoms: _557  and  _560
REMARK  232  A    between atoms: _560  and  _561
REMARK  233  A    between atoms: _561  and  _562
REMARK  234  A    between atoms: _562  and  _563
REMARK  235  A    between atoms: _572  and  _574
REMARK  236  A    between atoms: _574  and  _575
REMARK  237  A    between atoms: _574  and  _577
REMARK  238  A    between atoms: _577  and  _578
REMARK                            x       y       z     vdW  Elec       q    Type
REMARK                         _______ _______ _______ _____ _____    ______ ____
ROOT
ATOM      1  O   HOH     1     -20.177 -14.273 -20.965  0.00  0.00    +0.000 OA
ENDROOT
TORSDOF 0
REMARK  Name = ../refined-set-2016/3nu6/3nu6_pocket.pdb
REMARK  238 active torsions:
REMARK  status: ('A' for Active; 'I' for Inactive)
REMARK    1  A    between atoms: _1  and  _3
REMARK    2  A    between atoms: _3  and  _4
REMARK    3  A    between atoms: _3  and  _6
REMARK    4  A    between atoms: _6  and  _7
REMARK    5  A    between atoms: _7  and  _8
REMARK    6  A    between atoms: _8  and  _9
REMARK    7  A    between atoms: _18  and  _20
REMARK    8  A    between atoms: _20  and  _21
REMARK    9  A    between atoms: _20  and  _23
REMARK   10  A    between atoms: _23  and  _24
REMARK   11  A    between atoms: _27  and  _29
REMARK   12  A    between atoms: _29  and  _30
REMARK   13  A    between atoms: _29  and  _32
REMARK   14  A    between atoms: _32  and  _33
REMARK   15  A    between atoms: _36  and  _38
REMARK   16  A    between atoms: _38  and  _39
REMARK   17  A    between atoms: _38  and  _41
REMARK   18  A    between atoms: _41  and  _42
REMARK   19  A    between atoms: _45  and  _47
REMARK   20  A    between atoms: _47  and  _48
REMARK   21  A    between atoms: _47  and  _50
REMARK   22  A    between atoms: _50  and  _51
REMARK   23  A    between atoms: _54  and  _56
REMARK   24  A    between atoms: _56  and  _57
REMARK   25  A    between atoms: _59  and  _61
REMARK   26  A    between atoms: _61  and  _62
REMARK   27  A    between atoms: _65  and  _67
REMARK   28  A    between atoms: _67  and  _68
REMARK   29  A    between atoms: _67  and  _70
REMARK   30  A    between atoms: _70  and  _71
REMARK   31  A    between atoms: _74  and  _76
REMARK   32  A    between atoms: _76  and  _77
REMARK   33  A    between atoms: _76  and  _79
REMARK   34  A    between atoms: _79  and  _80
REMARK   35  A    between atoms: _83  and  _85
REMARK   36  A    between atoms: _85  and  _86
REMARK   37  A    between atoms: _85  and  _88
REMARK   38  A    between atoms: _88  and  _89
REMARK   39  A    between atoms: _92  and  _94
REMARK   40  A    between atoms: _94  and  _95
REMARK   41  A    between atoms: _94  and  _97
REMARK   42  A    between atoms: _100  and  _102
REMARK   43  A    between atoms: _102  and  _103
REMARK   44  A    between atoms: _102  and  _105
REMARK   45  A    between atoms: _106  and  _107
REMARK   46  A    between atoms: _107  and  _108
REMARK   47  A    between atoms: _108  and  _109
REMARK   48  A    between atoms: _113  and  _115
REMARK   49  A    between atoms: _115  and  _116
REMARK   50  A    between atoms: _115  and  _118
REMARK   51  A    between atoms: _118  and  _119
REMARK   52  A    between atoms: _119  and  _120
REMARK   53  A    between atoms: _122  and  _124
REMARK   54  A    between atoms: _124  and  _125
REMARK   55  A    between atoms: _124  and  _127
REMARK   56  A    between atoms: _127  and  _128
REMARK   57  A    between atoms: _131  and  _133
REMARK   58  A    between atoms: _133  and  _134
REMARK   59  A    between atoms: _136  and  _138
REMARK   60  A    between atoms: _138  and  _139
REMARK   61  A    between atoms: _141  and  _143
REMARK   62  A    between atoms: _143  and  _144
REMARK   63  A    between atoms: _143  and  _146
REMARK   64  A    between atoms: _146  and  _147
REMARK   65  A    between atoms: _150  and  _152
REMARK   66  A    between atoms: _152  and  _153
REMARK   67  A    between atoms: _155  and  _157
REMARK   68  A    between atoms: _157  and  _158
REMARK   69  A    between atoms: _160  and  _162
REMARK   70  A    between atoms: _162  and  _163
REMARK   71  A    between atoms: _162  and  _165
REMARK   72  A    between atoms: _165  and  _166
REMARK   73  A    between atoms: _172  and  _174
REMARK   74  A    between atoms: _174  and  _175
REMARK   75  A    between atoms: _174  and  _177
REMARK   76  A    between atoms: _177  and  _178
REMARK   77  A    between atoms: _178  and  _179
REMARK   78  A    between atoms: _181  and  _183
REMARK   79  A    between atoms: _183  and  _184
REMARK   80  A    between atoms: _183  and  _186
REMARK   81  A    between atoms: _189  and  _191
REMARK   82  A    between atoms: _191  and  _192
REMARK   83  A    between atoms: _191  and  _194
REMARK   84  A    between atoms: _194  and  _195
REMARK   85  A    between atoms: _199  and  _200
REMARK   86  A    between atoms: _205  and  _207
REMARK   87  A    between atoms: _207  and  _208
REMARK   88  A    between atoms: _207  and  _210
REMARK   89  A    between atoms: _210  and  _211
REMARK   90  A    between atoms: _215  and  _216
REMARK   91  A    between atoms: _221  and  _223
REMARK   92  A    between atoms: _223  and  _224
REMARK   93  A    between atoms: _223  and  _226
REMARK   94  A    between atoms: _229  and  _231
REMARK   95  A    between atoms: _231  and  _232
REMARK   96  A    between atoms: _231  and  _234
REMARK   97  A    between atoms: _234  and  _235
REMARK   98  A    between atoms: _240  and  _242
REMARK   99  A    between atoms: _242  and  _243
REMARK  100  A    between atoms: _242  and  _245
REMARK  101  A    between atoms: _245  and  _246
REMARK  102  A    between atoms: _249  and  _251
REMARK  103  A    between atoms: _251  and  _252
REMARK  104  A    between atoms: _251  and  _254
REMARK  105  A    between atoms: _254  and  _255
REMARK  106  A    between atoms: _258  and  _260
REMARK  107  A    between atoms: _260  and  _261
REMARK  108  A    between atoms: _263  and  _265
REMARK  109  A    between atoms: _265  and  _266
REMARK  110  A    between atoms: _265  and  _268
REMARK  111  A    between atoms: _268  and  _269
REMARK  112  A    between atoms: _269  and  _270
REMARK  113  A    between atoms: _270  and  _271
REMARK  114  A    between atoms: _280  and  _282
REMARK  115  A    between atoms: _282  and  _283
REMARK  116  A    between atoms: _282  and  _285
REMARK  117  A    between atoms: _285  and  _286
REMARK  118  A    between atoms: _291  and  _293
REMARK  119  A    between atoms: _293  and  _294
REMARK  120  A    between atoms: _293  and  _296
REMARK  121  A    between atoms: _296  and  _297
REMARK  122  A    between atoms: _297  and  _298
REMARK  123  A    between atoms: _298  and  _299
REMARK  124  A    between atoms: _308  and  _310
REMARK  125  A    between atoms: _310  and  _311
REMARK  126  A    between atoms: _310  and  _313
REMARK  127  A    between atoms: _313  and  _314
REMARK  128  A    between atoms: _317  and  _319
REMARK  129  A    between atoms: _319  and  _320
REMARK  130  A    between atoms: _319  and  _322
REMARK  131  A    between atoms: _322  and  _323
REMARK  132  A    between atoms: _326  and  _328
REMARK  133  A    between atoms: _328  and  _329
REMARK  134  A    between atoms: _328  and  _331
REMARK  135  A    between atoms: _331  and  _332
REMARK  136  A    between atoms: _335  and  _337
REMARK  137  A    between atoms: _337  and  _338
REMARK  138  A    between atoms: _337  and  _340
REMARK  139  A    between atoms: _340  and  _341
REMARK  140  A    between atoms: _344  and  _346
REMARK  141  A    between atoms: _346  and  _347
REMARK  142  A    between atoms: _349  and  _351
REMARK  143  A    between atoms: _351  and  _352
REMARK  144  A    between atoms: _355  and  _357
REMARK  145  A    between atoms: _357  and  _358
REMARK  146  A    between atoms: _357  and  _360
REMARK  147  A    between atoms: _360  and  _361
REMARK  148  A    between atoms: _364  and  _366
REMARK  149  A    between atoms: _366  and  _367
REMARK  150  A    between atoms: _366  and  _369
REMARK  151  A    between atoms: _369  and  _370
REMARK  152  A    between atoms: _373  and  _375
REMARK  153  A    between atoms: _375  and  _376
REMARK  154  A    between atoms: _375  and  _378
REMARK  155  A    between atoms: _378  and  _379
REMARK  156  A    between atoms: _382  and  _384
REMARK  157  A    between atoms: _384  and  _385
REMARK  158  A    between atoms: _384  and  _387
REMARK  159  A    between atoms: _390  and  _392
REMARK  160  A    between atoms: _392  and  _393
REMARK  161  A    between atoms: _392  and  _395
REMARK  162  A    between atoms: _395  and  _396
REMARK  163  A    between atoms: _399  and  _401
REMARK  164  A    between atoms: _401  and  _402
REMARK  165  A    between atoms: _401  and  _404
REMARK  166  A    between atoms: _404  and  _405
REMARK  167  A    between atoms: _405  and  _406
REMARK  168  A    between atoms: _406  and  _407
REMARK  169  A    between atoms: _407  and  _408
REMARK  170  A    between atoms: _412  and  _414
REMARK  171  A    between atoms: _414  and  _415
REMARK  172  A    between atoms: _414  and  _417
REMARK  173  A    between atoms: _417  and  _418
REMARK  174  A    between atoms: _418  and  _419
REMARK  175  A    between atoms: _421  and  _423
REMARK  176  A    between atoms: _423  and  _424
REMARK  177  A    between atoms: _423  and  _426
REMARK  178  A    between atoms: _426  and  _427
REMARK  179  A    between atoms: _430  and  _432
REMARK  180  A    between atoms: _432  and  _433
REMARK  181  A    between atoms: _435  and  _437
REMARK  182  A    between atoms: _437  and  _438
REMARK  183  A    between atoms: _440  and  _442
REMARK  184  A    between atoms: _442  and  _443
REMARK  185  A    between atoms: _442  and  _445
REMARK  186  A    between atoms: _445  and  _446
REMARK  187  A    between atoms: _449  and  _451
REMARK  188  A    between atoms: _451  and  _452
REMARK  189  A    between atoms: _454  and  _456
REMARK  190  A    between atoms: _456  and  _457
REMARK  191  A    between atoms: _459  and  _461
REMARK  192  A    between atoms: _461  and  _462
REMARK  193  A    between atoms: _461  and  _464
REMARK  194  A    between atoms: _464  and  _465
REMARK  195  A    between atoms: _471  and  _473
REMARK  196  A    between atoms: _473  and  _474
REMARK  197  A    between atoms: _473  and  _476
REMARK  198  A    between atoms: _476  and  _477
REMARK  199  A    between atoms: _477  and  _478
REMARK  200  A    between atoms: _480  and  _482
REMARK  201  A    between atoms: _482  and  _483
REMARK  202  A    between atoms: _482  and  _485
REMARK  203  A    between atoms: _488  and  _490
REMARK  204  A    between atoms: _490  and  _491
REMARK  205  A    between atoms: _490  and  _493
REMARK  206  A    between atoms: _493  and  _494
REMARK  207  A    between atoms: _497  and  _499
REMARK  208  A    between atoms: _499  and  _500
REMARK  209  A    between atoms: _499  and  _502
REMARK  210  A    between atoms: _502  and  _503
REMARK  211  A    between atoms: _507  and  _508
REMARK  212  A    between atoms: _513  and  _515
REMARK  213  A    between atoms: _515  and  _516
REMARK  214  A    between atoms: _515  and  _518
REMARK  215  A    between atoms: _521  and  _523
REMARK  216  A    between atoms: _523  and  _524
REMARK  217  A    between atoms: _523  and  _526
REMARK  218  A    between atoms: _526  and  _527
REMARK  219  A    between atoms: _532  and  _534
REMARK  220  A    between atoms: _534  and  _535
REMARK  221  A    between atoms: _534  and  _537
REMARK  222  A    between atoms: _537  and  _538
REMARK  223  A    between atoms: _541  and  _543
REMARK  224  A    between atoms: _543  and  _544
REMARK  225  A    between atoms: _543  and  _546
REMARK  226  A    between atoms: _546  and  _547
REMARK  227  A    between atoms: _550  and  _552
REMARK  228  A    between atoms: _552  and  _553
REMARK  229  A    between atoms: _555  and  _557
REMARK  230  A    between atoms: _557  and  _558
REMARK  231  A    between atoms: _557  and  _560
REMARK  232  A    between atoms: _560  and  _561
REMARK  233  A    between atoms: _561  and  _562
REMARK  234  A    between atoms: _562  and  _563
REMARK  235  A    between atoms: _572  and  _574
REMARK  236  A    between atoms: _574  and  _575
REMARK  237  A    between atoms: _574  and  _577
REMARK  238  A    between atoms: _577  and  _578
REMARK                            x       y       z     vdW  Elec       q    Type
REMARK                         _______ _______ _______ _____ _____    ______ ____
ROOT
ATOM      1  O   HOH     1      -8.738 -20.559 -16.271  0.00  0.00    +0.000 OA
ENDROOT
TORSDOF 0
REMARK  Name = ../refined-set-2016/3nu6/3nu6_pocket.pdb
REMARK  238 active torsions:
REMARK  status: ('A' for Active; 'I' for Inactive)
REMARK    1  A    between atoms: _1  and  _3
REMARK    2  A    between atoms: _3  and  _4
REMARK    3  A    between atoms: _3  and  _6
REMARK    4  A    between atoms: _6  and  _7
REMARK    5  A    between atoms: _7  and  _8
REMARK    6  A    between atoms: _8  and  _9
REMARK    7  A    between atoms: _18  and  _20
REMARK    8  A    between atoms: _20  and  _21
REMARK    9  A    between atoms: _20  and  _23
REMARK   10  A    between atoms: _23  and  _24
REMARK   11  A    between atoms: _27  and  _29
REMARK   12  A    between atoms: _29  and  _30
REMARK   13  A    between atoms: _29  and  _32
REMARK   14  A    between atoms: _32  and  _33
REMARK   15  A    between atoms: _36  and  _38
REMARK   16  A    between atoms: _38  and  _39
REMARK   17  A    between atoms: _38  and  _41
REMARK   18  A    between atoms: _41  and  _42
REMARK   19  A    between atoms: _45  and  _47
REMARK   20  A    between atoms: _47  and  _48
REMARK   21  A    between atoms: _47  and  _50
REMARK   22  A    between atoms: _50  and  _51
REMARK   23  A    between atoms: _54  and  _56
REMARK   24  A    between atoms: _56  and  _57
REMARK   25  A    between atoms: _59  and  _61
REMARK   26  A    between atoms: _61  and  _62
REMARK   27  A    between atoms: _65  and  _67
REMARK   28  A    between atoms: _67  and  _68
REMARK   29  A    between atoms: _67  and  _70
REMARK   30  A    between atoms: _70  and  _71
REMARK   31  A    between atoms: _74  and  _76
REMARK   32  A    between atoms: _76  and  _77
REMARK   33  A    between atoms: _76  and  _79
REMARK   34  A    between atoms: _79  and  _80
REMARK   35  A    between atoms: _83  and  _85
REMARK   36  A    between atoms: _85  and  _86
REMARK   37  A    between atoms: _85  and  _88
REMARK   38  A    between atoms: _88  and  _89
REMARK   39  A    between atoms: _92  and  _94
REMARK   40  A    between atoms: _94  and  _95
REMARK   41  A    between atoms: _94  and  _97
REMARK   42  A    between atoms: _100  and  _102
REMARK   43  A    between atoms: _102  and  _103
REMARK   44  A    between atoms: _102  and  _105
REMARK   45  A    between atoms: _106  and  _107
REMARK   46  A    between atoms: _107  and  _108
REMARK   47  A    between atoms: _108  and  _109
REMARK   48  A    between atoms: _113  and  _115
REMARK   49  A    between atoms: _115  and  _116
REMARK   50  A    between atoms: _115  and  _118
REMARK   51  A    between atoms: _118  and  _119
REMARK   52  A    between atoms: _119  and  _120
REMARK   53  A    between atoms: _122  and  _124
REMARK   54  A    between atoms: _124  and  _125
REMARK   55  A    between atoms: _124  and  _127
REMARK   56  A    between atoms: _127  and  _128
REMARK   57  A    between atoms: _131  and  _133
REMARK   58  A    between atoms: _133  and  _134
REMARK   59  A    between atoms: _136  and  _138
REMARK   60  A    between atoms: _138  and  _139
REMARK   61  A    between atoms: _141  and  _143
REMARK   62  A    between atoms: _143  and  _144
REMARK   63  A    between atoms: _143  and  _146
REMARK   64  A    between atoms: _146  and  _147
REMARK   65  A    between atoms: _150  and  _152
REMARK   66  A    between atoms: _152  and  _153
REMARK   67  A    between atoms: _155  and  _157
REMARK   68  A    between atoms: _157  and  _158
REMARK   69  A    between atoms: _160  and  _162
REMARK   70  A    between atoms: _162  and  _163
REMARK   71  A    between atoms: _162  and  _165
REMARK   72  A    between atoms: _165  and  _166
REMARK   73  A    between atoms: _172  and  _174
REMARK   74  A    between atoms: _174  and  _175
REMARK   75  A    between atoms: _174  and  _177
REMARK   76  A    between atoms: _177  and  _178
REMARK   77  A    between atoms: _178  and  _179
REMARK   78  A    between atoms: _181  and  _183
REMARK   79  A    between atoms: _183  and  _184
REMARK   80  A    between atoms: _183  and  _186
REMARK   81  A    between atoms: _189  and  _191
REMARK   82  A    between atoms: _191  and  _192
REMARK   83  A    between atoms: _191  and  _194
REMARK   84  A    between atoms: _194  and  _195
REMARK   85  A    between atoms: _199  and  _200
REMARK   86  A    between atoms: _205  and  _207
REMARK   87  A    between atoms: _207  and  _208
REMARK   88  A    between atoms: _207  and  _210
REMARK   89  A    between atoms: _210  and  _211
REMARK   90  A    between atoms: _215  and  _216
REMARK   91  A    between atoms: _221  and  _223
REMARK   92  A    between atoms: _223  and  _224
REMARK   93  A    between atoms: _223  and  _226
REMARK   94  A    between atoms: _229  and  _231
REMARK   95  A    between atoms: _231  and  _232
REMARK   96  A    between atoms: _231  and  _234
REMARK   97  A    between atoms: _234  and  _235
REMARK   98  A    between atoms: _240  and  _242
REMARK   99  A    between atoms: _242  and  _243
REMARK  100  A    between atoms: _242  and  _245
REMARK  101  A    between atoms: _245  and  _246
REMARK  102  A    between atoms: _249  and  _251
REMARK  103  A    between atoms: _251  and  _252
REMARK  104  A    between atoms: _251  and  _254
REMARK  105  A    between atoms: _254  and  _255
REMARK  106  A    between atoms: _258  and  _260
REMARK  107  A    between atoms: _260  and  _261
REMARK  108  A    between atoms: _263  and  _265
REMARK  109  A    between atoms: _265  and  _266
REMARK  110  A    between atoms: _265  and  _268
REMARK  111  A    between atoms: _268  and  _269
REMARK  112  A    between atoms: _269  and  _270
REMARK  113  A    between atoms: _270  and  _271
REMARK  114  A    between atoms: _280  and  _282
REMARK  115  A    between atoms: _282  and  _283
REMARK  116  A    between atoms: _282  and  _285
REMARK  117  A    between atoms: _285  and  _286
REMARK  118  A    between atoms: _291  and  _293
REMARK  119  A    between atoms: _293  and  _294
REMARK  120  A    between atoms: _293  and  _296
REMARK  121  A    between atoms: _296  and  _297
REMARK  122  A    between atoms: _297  and  _298
REMARK  123  A    between atoms: _298  and  _299
REMARK  124  A    between atoms: _308  and  _310
REMARK  125  A    between atoms: _310  and  _311
REMARK  126  A    between atoms: _310  and  _313
REMARK  127  A    between atoms: _313  and  _314
REMARK  128  A    between atoms: _317  and  _319
REMARK  129  A    between atoms: _319  and  _320
REMARK  130  A    between atoms: _319  and  _322
REMARK  131  A    between atoms: _322  and  _323
REMARK  132  A    between atoms: _326  and  _328
REMARK  133  A    between atoms: _328  and  _329
REMARK  134  A    between atoms: _328  and  _331
REMARK  135  A    between atoms: _331  and  _332
REMARK  136  A    between atoms: _335  and  _337
REMARK  137  A    between atoms: _337  and  _338
REMARK  138  A    between atoms: _337  and  _340
REMARK  139  A    between atoms: _340  and  _341
REMARK  140  A    between atoms: _344  and  _346
REMARK  141  A    between atoms: _346  and  _347
REMARK  142  A    between atoms: _349  and  _351
REMARK  143  A    between atoms: _351  and  _352
REMARK  144  A    between atoms: _355  and  _357
REMARK  145  A    between atoms: _357  and  _358
REMARK  146  A    between atoms: _357  and  _360
REMARK  147  A    between atoms: _360  and  _361
REMARK  148  A    between atoms: _364  and  _366
REMARK  149  A    between atoms: _366  and  _367
REMARK  150  A    between atoms: _366  and  _369
REMARK  151  A    between atoms: _369  and  _370
REMARK  152  A    between atoms: _373  and  _375
REMARK  153  A    between atoms: _375  and  _376
REMARK  154  A    between atoms: _375  and  _378
REMARK  155  A    between atoms: _378  and  _379
REMARK  156  A    between atoms: _382  and  _384
REMARK  157  A    between atoms: _384  and  _385
REMARK  158  A    between atoms: _384  and  _387
REMARK  159  A    between atoms: _390  and  _392
REMARK  160  A    between atoms: _392  and  _393
REMARK  161  A    between atoms: _392  and  _395
REMARK  162  A    between atoms: _395  and  _396
REMARK  163  A    between atoms: _399  and  _401
REMARK  164  A    between atoms: _401  and  _402
REMARK  165  A    between atoms: _401  and  _404
REMARK  166  A    between atoms: _404  and  _405
REMARK  167  A    between atoms: _405  and  _406
REMARK  168  A    between atoms: _406  and  _407
REMARK  169  A    between atoms: _407  and  _408
REMARK  170  A    between atoms: _412  and  _414
REMARK  171  A    between atoms: _414  and  _415
REMARK  172  A    between atoms: _414  and  _417
REMARK  173  A    between atoms: _417  and  _418
REMARK  174  A    between atoms: _418  and  _419
REMARK  175  A    between atoms: _421  and  _423
REMARK  176  A    between atoms: _423  and  _424
REMARK  177  A    between atoms: _423  and  _426
REMARK  178  A    between atoms: _426  and  _427
REMARK  179  A    between atoms: _430  and  _432
REMARK  180  A    between atoms: _432  and  _433
REMARK  181  A    between atoms: _435  and  _437
REMARK  182  A    between atoms: _437  and  _438
REMARK  183  A    between atoms: _440  and  _442
REMARK  184  A    between atoms: _442  and  _443
REMARK  185  A    between atoms: _442  and  _445
REMARK  186  A    between atoms: _445  and  _446
REMARK  187  A    between atoms: _449  and  _451
REMARK  188  A    between atoms: _451  and  _452
REMARK  189  A    between atoms: _454  and  _456
REMARK  190  A    between atoms: _456  and  _457
REMARK  191  A    between atoms: _459  and  _461
REMARK  192  A    between atoms: _461  and  _462
REMARK  193  A    between atoms: _461  and  _464
REMARK  194  A    between atoms: _464  and  _465
REMARK  195  A    between atoms: _471  and  _473
REMARK  196  A    between atoms: _473  and  _474
REMARK  197  A    between atoms: _473  and  _476
REMARK  198  A    between atoms: _476  and  _477
REMARK  199  A    between atoms: _477  and  _478
REMARK  200  A    between atoms: _480  and  _482
REMARK  201  A    between atoms: _482  and  _483
REMARK  202  A    between atoms: _482  and  _485
REMARK  203  A    between atoms: _488  and  _490
REMARK  204  A    between atoms: _490  and  _491
REMARK  205  A    between atoms: _490  and  _493
REMARK  206  A    between atoms: _493  and  _494
REMARK  207  A    between atoms: _497  and  _499
REMARK  208  A    between atoms: _499  and  _500
REMARK  209  A    between atoms: _499  and  _502
REMARK  210  A    between atoms: _502  and  _503
REMARK  211  A    between atoms: _507  and  _508
REMARK  212  A    between atoms: _513  and  _515
REMARK  213  A    between atoms: _515  and  _516
REMARK  214  A    between atoms: _515  and  _518
REMARK  215  A    between atoms: _521  and  _523
REMARK  216  A    between atoms: _523  and  _524
REMARK  217  A    between atoms: _523  and  _526
REMARK  218  A    between atoms: _526  and  _527
REMARK  219  A    between atoms: _532  and  _534
REMARK  220  A    between atoms: _534  and  _535
REMARK  221  A    between atoms: _534  and  _537
REMARK  222  A    between atoms: _537  and  _538
REMARK  223  A    between atoms: _541  and  _543
REMARK  224  A    between atoms: _543  and  _544
REMARK  225  A    between atoms: _543  and  _546
REMARK  226  A    between atoms: _546  and  _547
REMARK  227  A    between atoms: _550  and  _552
REMARK  228  A    between atoms: _552  and  _553
REMARK  229  A    between atoms: _555  and  _557
REMARK  230  A    between atoms: _557  and  _558
REMARK  231  A    between atoms: _557  and  _560
REMARK  232  A    between atoms: _560  and  _561
REMARK  233  A    between atoms: _561  and  _562
REMARK  234  A    between atoms: _562  and  _563
REMARK  235  A    between atoms: _572  and  _574
REMARK  236  A    between atoms: _574  and  _575
REMARK  237  A    between atoms: _574  and  _577
REMARK  238  A    between atoms: _577  and  _578
REMARK                            x       y       z     vdW  Elec       q    Type
REMARK                         _______ _______ _______ _____ _____    ______ ____
ROOT
ATOM      1  O   HOH     1     -12.049 -26.169 -11.620  0.00  0.00    +0.000 OA
ENDROOT
TORSDOF 0
REMARK  Name = ../refined-set-2016/3nu6/3nu6_pocket.pdb
REMARK  238 active torsions:
REMARK  status: ('A' for Active; 'I' for Inactive)
REMARK    1  A    between atoms: _1  and  _3
REMARK    2  A    between atoms: _3  and  _4
REMARK    3  A    between atoms: _3  and  _6
REMARK    4  A    between atoms: _6  and  _7
REMARK    5  A    between atoms: _7  and  _8
REMARK    6  A    between atoms: _8  and  _9
REMARK    7  A    between atoms: _18  and  _20
REMARK    8  A    between atoms: _20  and  _21
REMARK    9  A    between atoms: _20  and  _23
REMARK   10  A    between atoms: _23  and  _24
REMARK   11  A    between atoms: _27  and  _29
REMARK   12  A    between atoms: _29  and  _30
REMARK   13  A    between atoms: _29  and  _32
REMARK   14  A    between atoms: _32  and  _33
REMARK   15  A    between atoms: _36  and  _38
REMARK   16  A    between atoms: _38  and  _39
REMARK   17  A    between atoms: _38  and  _41
REMARK   18  A    between atoms: _41  and  _42
REMARK   19  A    between atoms: _45  and  _47
REMARK   20  A    between atoms: _47  and  _48
REMARK   21  A    between atoms: _47  and  _50
REMARK   22  A    between atoms: _50  and  _51
REMARK   23  A    between atoms: _54  and  _56
REMARK   24  A    between atoms: _56  and  _57
REMARK   25  A    between atoms: _59  and  _61
REMARK   26  A    between atoms: _61  and  _62
REMARK   27  A    between atoms: _65  and  _67
REMARK   28  A    between atoms: _67  and  _68
REMARK   29  A    between atoms: _67  and  _70
REMARK   30  A    between atoms: _70  and  _71
REMARK   31  A    between atoms: _74  and  _76
REMARK   32  A    between atoms: _76  and  _77
REMARK   33  A    between atoms: _76  and  _79
REMARK   34  A    between atoms: _79  and  _80
REMARK   35  A    between atoms: _83  and  _85
REMARK   36  A    between atoms: _85  and  _86
REMARK   37  A    between atoms: _85  and  _88
REMARK   38  A    between atoms: _88  and  _89
REMARK   39  A    between atoms: _92  and  _94
REMARK   40  A    between atoms: _94  and  _95
REMARK   41  A    between atoms: _94  and  _97
REMARK   42  A    between atoms: _100  and  _102
REMARK   43  A    between atoms: _102  and  _103
REMARK   44  A    between atoms: _102  and  _105
REMARK   45  A    between atoms: _106  and  _107
REMARK   46  A    between atoms: _107  and  _108
REMARK   47  A    between atoms: _108  and  _109
REMARK   48  A    between atoms: _113  and  _115
REMARK   49  A    between atoms: _115  and  _116
REMARK   50  A    between atoms: _115  and  _118
REMARK   51  A    between atoms: _118  and  _119
REMARK   52  A    between atoms: _119  and  _120
REMARK   53  A    between atoms: _122  and  _124
REMARK   54  A    between atoms: _124  and  _125
REMARK   55  A    between atoms: _124  and  _127
REMARK   56  A    between atoms: _127  and  _128
REMARK   57  A    between atoms: _131  and  _133
REMARK   58  A    between atoms: _133  and  _134
REMARK   59  A    between atoms: _136  and  _138
REMARK   60  A    between atoms: _138  and  _139
REMARK   61  A    between atoms: _141  and  _143
REMARK   62  A    between atoms: _143  and  _144
REMARK   63  A    between atoms: _143  and  _146
REMARK   64  A    between atoms: _146  and  _147
REMARK   65  A    between atoms: _150  and  _152
REMARK   66  A    between atoms: _152  and  _153
REMARK   67  A    between atoms: _155  and  _157
REMARK   68  A    between atoms: _157  and  _158
REMARK   69  A    between atoms: _160  and  _162
REMARK   70  A    between atoms: _162  and  _163
REMARK   71  A    between atoms: _162  and  _165
REMARK   72  A    between atoms: _165  and  _166
REMARK   73  A    between atoms: _172  and  _174
REMARK   74  A    between atoms: _174  and  _175
REMARK   75  A    between atoms: _174  and  _177
REMARK   76  A    between atoms: _177  and  _178
REMARK   77  A    between atoms: _178  and  _179
REMARK   78  A    between atoms: _181  and  _183
REMARK   79  A    between atoms: _183  and  _184
REMARK   80  A    between atoms: _183  and  _186
REMARK   81  A    between atoms: _189  and  _191
REMARK   82  A    between atoms: _191  and  _192
REMARK   83  A    between atoms: _191  and  _194
REMARK   84  A    between atoms: _194  and  _195
REMARK   85  A    between atoms: _199  and  _200
REMARK   86  A    between atoms: _205  and  _207
REMARK   87  A    between atoms: _207  and  _208
REMARK   88  A    between atoms: _207  and  _210
REMARK   89  A    between atoms: _210  and  _211
REMARK   90  A    between atoms: _215  and  _216
REMARK   91  A    between atoms: _221  and  _223
REMARK   92  A    between atoms: _223  and  _224
REMARK   93  A    between atoms: _223  and  _226
REMARK   94  A    between atoms: _229  and  _231
REMARK   95  A    between atoms: _231  and  _232
REMARK   96  A    between atoms: _231  and  _234
REMARK   97  A    between atoms: _234  and  _235
REMARK   98  A    between atoms: _240  and  _242
REMARK   99  A    between atoms: _242  and  _243
REMARK  100  A    between atoms: _242  and  _245
REMARK  101  A    between atoms: _245  and  _246
REMARK  102  A    between atoms: _249  and  _251
REMARK  103  A    between atoms: _251  and  _252
REMARK  104  A    between atoms: _251  and  _254
REMARK  105  A    between atoms: _254  and  _255
REMARK  106  A    between atoms: _258  and  _260
REMARK  107  A    between atoms: _260  and  _261
REMARK  108  A    between atoms: _263  and  _265
REMARK  109  A    between atoms: _265  and  _266
REMARK  110  A    between atoms: _265  and  _268
REMARK  111  A    between atoms: _268  and  _269
REMARK  112  A    between atoms: _269  and  _270
REMARK  113  A    between atoms: _270  and  _271
REMARK  114  A    between atoms: _280  and  _282
REMARK  115  A    between atoms: _282  and  _283
REMARK  116  A    between atoms: _282  and  _285
REMARK  117  A    between atoms: _285  and  _286
REMARK  118  A    between atoms: _291  and  _293
REMARK  119  A    between atoms: _293  and  _294
REMARK  120  A    between atoms: _293  and  _296
REMARK  121  A    between atoms: _296  and  _297
REMARK  122  A    between atoms: _297  and  _298
REMARK  123  A    between atoms: _298  and  _299
REMARK  124  A    between atoms: _308  and  _310
REMARK  125  A    between atoms: _310  and  _311
REMARK  126  A    between atoms: _310  and  _313
REMARK  127  A    between atoms: _313  and  _314
REMARK  128  A    between atoms: _317  and  _319
REMARK  129  A    between atoms: _319  and  _320
REMARK  130  A    between atoms: _319  and  _322
REMARK  131  A    between atoms: _322  and  _323
REMARK  132  A    between atoms: _326  and  _328
REMARK  133  A    between atoms: _328  and  _329
REMARK  134  A    between atoms: _328  and  _331
REMARK  135  A    between atoms: _331  and  _332
REMARK  136  A    between atoms: _335  and  _337
REMARK  137  A    between atoms: _337  and  _338
REMARK  138  A    between atoms: _337  and  _340
REMARK  139  A    between atoms: _340  and  _341
REMARK  140  A    between atoms: _344  and  _346
REMARK  141  A    between atoms: _346  and  _347
REMARK  142  A    between atoms: _349  and  _351
REMARK  143  A    between atoms: _351  and  _352
REMARK  144  A    between atoms: _355  and  _357
REMARK  145  A    between atoms: _357  and  _358
REMARK  146  A    between atoms: _357  and  _360
REMARK  147  A    between atoms: _360  and  _361
REMARK  148  A    between atoms: _364  and  _366
REMARK  149  A    between atoms: _366  and  _367
REMARK  150  A    between atoms: _366  and  _369
REMARK  151  A    between atoms: _369  and  _370
REMARK  152  A    between atoms: _373  and  _375
REMARK  153  A    between atoms: _375  and  _376
REMARK  154  A    between atoms: _375  and  _378
REMARK  155  A    between atoms: _378  and  _379
REMARK  156  A    between atoms: _382  and  _384
REMARK  157  A    between atoms: _384  and  _385
REMARK  158  A    between atoms: _384  and  _387
REMARK  159  A    between atoms: _390  and  _392
REMARK  160  A    between atoms: _392  and  _393
REMARK  161  A    between atoms: _392  and  _395
REMARK  162  A    between atoms: _395  and  _396
REMARK  163  A    between atoms: _399  and  _401
REMARK  164  A    between atoms: _401  and  _402
REMARK  165  A    between atoms: _401  and  _404
REMARK  166  A    between atoms: _404  and  _405
REMARK  167  A    between atoms: _405  and  _406
REMARK  168  A    between atoms: _406  and  _407
REMARK  169  A    between atoms: _407  and  _408
REMARK  170  A    between atoms: _412  and  _414
REMARK  171  A    between atoms: _414  and  _415
REMARK  172  A    between atoms: _414  and  _417
REMARK  173  A    between atoms: _417  and  _418
REMARK  174  A    between atoms: _418  and  _419
REMARK  175  A    between atoms: _421  and  _423
REMARK  176  A    between atoms: _423  and  _424
REMARK  177  A    between atoms: _423  and  _426
REMARK  178  A    between atoms: _426  and  _427
REMARK  179  A    between atoms: _430  and  _432
REMARK  180  A    between atoms: _432  and  _433
REMARK  181  A    between atoms: _435  and  _437
REMARK  182  A    between atoms: _437  and  _438
REMARK  183  A    between atoms: _440  and  _442
REMARK  184  A    between atoms: _442  and  _443
REMARK  185  A    between atoms: _442  and  _445
REMARK  186  A    between atoms: _445  and  _446
REMARK  187  A    between atoms: _449  and  _451
REMARK  188  A    between atoms: _451  and  _452
REMARK  189  A    between atoms: _454  and  _456
REMARK  190  A    between atoms: _456  and  _457
REMARK  191  A    between atoms: _459  and  _461
REMARK  192  A    between atoms: _461  and  _462
REMARK  193  A    between atoms: _461  and  _464
REMARK  194  A    between atoms: _464  and  _465
REMARK  195  A    between atoms: _471  and  _473
REMARK  196  A    between atoms: _473  and  _474
REMARK  197  A    between atoms: _473  and  _476
REMARK  198  A    between atoms: _476  and  _477
REMARK  199  A    between atoms: _477  and  _478
REMARK  200  A    between atoms: _480  and  _482
REMARK  201  A    between atoms: _482  and  _483
REMARK  202  A    between atoms: _482  and  _485
REMARK  203  A    between atoms: _488  and  _490
REMARK  204  A    between atoms: _490  and  _491
REMARK  205  A    between atoms: _490  and  _493
REMARK  206  A    between atoms: _493  and  _494
REMARK  207  A    between atoms: _497  and  _499
REMARK  208  A    between atoms: _499  and  _500
REMARK  209  A    between atoms: _499  and  _502
REMARK  210  A    between atoms: _502  and  _503
REMARK  211  A    between atoms: _507  and  _508
REMARK  212  A    between atoms: _513  and  _515
REMARK  213  A    between atoms: _515  and  _516
REMARK  214  A    between atoms: _515  and  _518
REMARK  215  A    between atoms: _521  and  _523
REMARK  216  A    between atoms: _523  and  _524
REMARK  217  A    between atoms: _523  and  _526
REMARK  218  A    between atoms: _526  and  _527
REMARK  219  A    between atoms: _532  and  _534
REMARK  220  A    between atoms: _534  and  _535
REMARK  221  A    between atoms: _534  and  _537
REMARK  222  A    between atoms: _537  and  _538
REMARK  223  A    between atoms: _541  and  _543
REMARK  224  A    between atoms: _543  and  _544
REMARK  225  A    between atoms: _543  and  _546
REMARK  226  A    between atoms: _546  and  _547
REMARK  227  A    between atoms: _550  and  _552
REMARK  228  A    between atoms: _552  and  _553
REMARK  229  A    between atoms: _555  and  _557
REMARK  230  A    between atoms: _557  and  _558
REMARK  231  A    between atoms: _557  and  _560
REMARK  232  A    between atoms: _560  and  _561
REMARK  233  A    between atoms: _561  and  _562
REMARK  234  A    between atoms: _562  and  _563
REMARK  235  A    between atoms: _572  and  _574
REMARK  236  A    between atoms: _574  and  _575
REMARK  237  A    between atoms: _574  and  _577
REMARK  238  A    between atoms: _577  and  _578
REMARK                            x       y       z     vdW  Elec       q    Type
REMARK                         _______ _______ _______ _____ _____    ______ ____
ROOT
ATOM      1  O   HOH     1     -15.497 -27.381  -9.422  0.00  0.00    +0.000 OA
ENDROOT
TORSDOF 0
REMARK  Name = ../refined-set-2016/3nu6/3nu6_pocket.pdb
REMARK  238 active torsions:
REMARK  status: ('A' for Active; 'I' for Inactive)
REMARK    1  A    between atoms: _1  and  _3
REMARK    2  A    between atoms: _3  and  _4
REMARK    3  A    between atoms: _3  and  _6
REMARK    4  A    between atoms: _6  and  _7
REMARK    5  A    between atoms: _7  and  _8
REMARK    6  A    between atoms: _8  and  _9
REMARK    7  A    between atoms: _18  and  _20
REMARK    8  A    between atoms: _20  and  _21
REMARK    9  A    between atoms: _20  and  _23
REMARK   10  A    between atoms: _23  and  _24
REMARK   11  A    between atoms: _27  and  _29
REMARK   12  A    between atoms: _29  and  _30
REMARK   13  A    between atoms: _29  and  _32
REMARK   14  A    between atoms: _32  and  _33
REMARK   15  A    between atoms: _36  and  _38
REMARK   16  A    between atoms: _38  and  _39
REMARK   17  A    between atoms: _38  and  _41
REMARK   18  A    between atoms: _41  and  _42
REMARK   19  A    between atoms: _45  and  _47
REMARK   20  A    between atoms: _47  and  _48
REMARK   21  A    between atoms: _47  and  _50
REMARK   22  A    between atoms: _50  and  _51
REMARK   23  A    between atoms: _54  and  _56
REMARK   24  A    between atoms: _56  and  _57
REMARK   25  A    between atoms: _59  and  _61
REMARK   26  A    between atoms: _61  and  _62
REMARK   27  A    between atoms: _65  and  _67
REMARK   28  A    between atoms: _67  and  _68
REMARK   29  A    between atoms: _67  and  _70
REMARK   30  A    between atoms: _70  and  _71
REMARK   31  A    between atoms: _74  and  _76
REMARK   32  A    between atoms: _76  and  _77
REMARK   33  A    between atoms: _76  and  _79
REMARK   34  A    between atoms: _79  and  _80
REMARK   35  A    between atoms: _83  and  _85
REMARK   36  A    between atoms: _85  and  _86
REMARK   37  A    between atoms: _85  and  _88
REMARK   38  A    between atoms: _88  and  _89
REMARK   39  A    between atoms: _92  and  _94
REMARK   40  A    between atoms: _94  and  _95
REMARK   41  A    between atoms: _94  and  _97
REMARK   42  A    between atoms: _100  and  _102
REMARK   43  A    between atoms: _102  and  _103
REMARK   44  A    between atoms: _102  and  _105
REMARK   45  A    between atoms: _106  and  _107
REMARK   46  A    between atoms: _107  and  _108
REMARK   47  A    between atoms: _108  and  _109
REMARK   48  A    between atoms: _113  and  _115
REMARK   49  A    between atoms: _115  and  _116
REMARK   50  A    between atoms: _115  and  _118
REMARK   51  A    between atoms: _118  and  _119
REMARK   52  A    between atoms: _119  and  _120
REMARK   53  A    between atoms: _122  and  _124
REMARK   54  A    between atoms: _124  and  _125
REMARK   55  A    between atoms: _124  and  _127
REMARK   56  A    between atoms: _127  and  _128
REMARK   57  A    between atoms: _131  and  _133
REMARK   58  A    between atoms: _133  and  _134
REMARK   59  A    between atoms: _136  and  _138
REMARK   60  A    between atoms: _138  and  _139
REMARK   61  A    between atoms: _141  and  _143
REMARK   62  A    between atoms: _143  and  _144
REMARK   63  A    between atoms: _143  and  _146
REMARK   64  A    between atoms: _146  and  _147
REMARK   65  A    between atoms: _150  and  _152
REMARK   66  A    between atoms: _152  and  _153
REMARK   67  A    between atoms: _155  and  _157
REMARK   68  A    between atoms: _157  and  _158
REMARK   69  A    between atoms: _160  and  _162
REMARK   70  A    between atoms: _162  and  _163
REMARK   71  A    between atoms: _162  and  _165
REMARK   72  A    between atoms: _165  and  _166
REMARK   73  A    between atoms: _172  and  _174
REMARK   74  A    between atoms: _174  and  _175
REMARK   75  A    between atoms: _174  and  _177
REMARK   76  A    between atoms: _177  and  _178
REMARK   77  A    between atoms: _178  and  _179
REMARK   78  A    between atoms: _181  and  _183
REMARK   79  A    between atoms: _183  and  _184
REMARK   80  A    between atoms: _183  and  _186
REMARK   81  A    between atoms: _189  and  _191
REMARK   82  A    between atoms: _191  and  _192
REMARK   83  A    between atoms: _191  and  _194
REMARK   84  A    between atoms: _194  and  _195
REMARK   85  A    between atoms: _199  and  _200
REMARK   86  A    between atoms: _205  and  _207
REMARK   87  A    between atoms: _207  and  _208
REMARK   88  A    between atoms: _207  and  _210
REMARK   89  A    between atoms: _210  and  _211
REMARK   90  A    between atoms: _215  and  _216
REMARK   91  A    between atoms: _221  and  _223
REMARK   92  A    between atoms: _223  and  _224
REMARK   93  A    between atoms: _223  and  _226
REMARK   94  A    between atoms: _229  and  _231
REMARK   95  A    between atoms: _231  and  _232
REMARK   96  A    between atoms: _231  and  _234
REMARK   97  A    between atoms: _234  and  _235
REMARK   98  A    between atoms: _240  and  _242
REMARK   99  A    between atoms: _242  and  _243
REMARK  100  A    between atoms: _242  and  _245
REMARK  101  A    between atoms: _245  and  _246
REMARK  102  A    between atoms: _249  and  _251
REMARK  103  A    between atoms: _251  and  _252
REMARK  104  A    between atoms: _251  and  _254
REMARK  105  A    between atoms: _254  and  _255
REMARK  106  A    between atoms: _258  and  _260
REMARK  107  A    between atoms: _260  and  _261
REMARK  108  A    between atoms: _263  and  _265
REMARK  109  A    between atoms: _265  and  _266
REMARK  110  A    between atoms: _265  and  _268
REMARK  111  A    between atoms: _268  and  _269
REMARK  112  A    between atoms: _269  and  _270
REMARK  113  A    between atoms: _270  and  _271
REMARK  114  A    between atoms: _280  and  _282
REMARK  115  A    between atoms: _282  and  _283
REMARK  116  A    between atoms: _282  and  _285
REMARK  117  A    between atoms: _285  and  _286
REMARK  118  A    between atoms: _291  and  _293
REMARK  119  A    between atoms: _293  and  _294
REMARK  120  A    between atoms: _293  and  _296
REMARK  121  A    between atoms: _296  and  _297
REMARK  122  A    between atoms: _297  and  _298
REMARK  123  A    between atoms: _298  and  _299
REMARK  124  A    between atoms: _308  and  _310
REMARK  125  A    between atoms: _310  and  _311
REMARK  126  A    between atoms: _310  and  _313
REMARK  127  A    between atoms: _313  and  _314
REMARK  128  A    between atoms: _317  and  _319
REMARK  129  A    between atoms: _319  and  _320
REMARK  130  A    between atoms: _319  and  _322
REMARK  131  A    between atoms: _322  and  _323
REMARK  132  A    between atoms: _326  and  _328
REMARK  133  A    between atoms: _328  and  _329
REMARK  134  A    between atoms: _328  and  _331
REMARK  135  A    between atoms: _331  and  _332
REMARK  136  A    between atoms: _335  and  _337
REMARK  137  A    between atoms: _337  and  _338
REMARK  138  A    between atoms: _337  and  _340
REMARK  139  A    between atoms: _340  and  _341
REMARK  140  A    between atoms: _344  and  _346
REMARK  141  A    between atoms: _346  and  _347
REMARK  142  A    between atoms: _349  and  _351
REMARK  143  A    between atoms: _351  and  _352
REMARK  144  A    between atoms: _355  and  _357
REMARK  145  A    between atoms: _357  and  _358
REMARK  146  A    between atoms: _357  and  _360
REMARK  147  A    between atoms: _360  and  _361
REMARK  148  A    between atoms: _364  and  _366
REMARK  149  A    between atoms: _366  and  _367
REMARK  150  A    between atoms: _366  and  _369
REMARK  151  A    between atoms: _369  and  _370
REMARK  152  A    between atoms: _373  and  _375
REMARK  153  A    between atoms: _375  and  _376
REMARK  154  A    between atoms: _375  and  _378
REMARK  155  A    between atoms: _378  and  _379
REMARK  156  A    between atoms: _382  and  _384
REMARK  157  A    between atoms: _384  and  _385
REMARK  158  A    between atoms: _384  and  _387
REMARK  159  A    between atoms: _390  and  _392
REMARK  160  A    between atoms: _392  and  _393
REMARK  161  A    between atoms: _392  and  _395
REMARK  162  A    between atoms: _395  and  _396
REMARK  163  A    between atoms: _399  and  _401
REMARK  164  A    between atoms: _401  and  _402
REMARK  165  A    between atoms: _401  and  _404
REMARK  166  A    between atoms: _404  and  _405
REMARK  167  A    between atoms: _405  and  _406
REMARK  168  A    between atoms: _406  and  _407
REMARK  169  A    between atoms: _407  and  _408
REMARK  170  A    between atoms: _412  and  _414
REMARK  171  A    between atoms: _414  and  _415
REMARK  172  A    between atoms: _414  and  _417
REMARK  173  A    between atoms: _417  and  _418
REMARK  174  A    between atoms: _418  and  _419
REMARK  175  A    between atoms: _421  and  _423
REMARK  176  A    between atoms: _423  and  _424
REMARK  177  A    between atoms: _423  and  _426
REMARK  178  A    between atoms: _426  and  _427
REMARK  179  A    between atoms: _430  and  _432
REMARK  180  A    between atoms: _432  and  _433
REMARK  181  A    between atoms: _435  and  _437
REMARK  182  A    between atoms: _437  and  _438
REMARK  183  A    between atoms: _440  and  _442
REMARK  184  A    between atoms: _442  and  _443
REMARK  185  A    between atoms: _442  and  _445
REMARK  186  A    between atoms: _445  and  _446
REMARK  187  A    between atoms: _449  and  _451
REMARK  188  A    between atoms: _451  and  _452
REMARK  189  A    between atoms: _454  and  _456
REMARK  190  A    between atoms: _456  and  _457
REMARK  191  A    between atoms: _459  and  _461
REMARK  192  A    between atoms: _461  and  _462
REMARK  193  A    between atoms: _461  and  _464
REMARK  194  A    between atoms: _464  and  _465
REMARK  195  A    between atoms: _471  and  _473
REMARK  196  A    between atoms: _473  and  _474
REMARK  197  A    between atoms: _473  and  _476
REMARK  198  A    between atoms: _476  and  _477
REMARK  199  A    between atoms: _477  and  _478
REMARK  200  A    between atoms: _480  and  _482
REMARK  201  A    between atoms: _482  and  _483
REMARK  202  A    between atoms: _482  and  _485
REMARK  203  A    between atoms: _488  and  _490
REMARK  204  A    between atoms: _490  and  _491
REMARK  205  A    between atoms: _490  and  _493
REMARK  206  A    between atoms: _493  and  _494
REMARK  207  A    between atoms: _497  and  _499
REMARK  208  A    between atoms: _499  and  _500
REMARK  209  A    between atoms: _499  and  _502
REMARK  210  A    between atoms: _502  and  _503
REMARK  211  A    between atoms: _507  and  _508
REMARK  212  A    between atoms: _513  and  _515
REMARK  213  A    between atoms: _515  and  _516
REMARK  214  A    between atoms: _515  and  _518
REMARK  215  A    between atoms: _521  and  _523
REMARK  216  A    between atoms: _523  and  _524
REMARK  217  A    between atoms: _523  and  _526
REMARK  218  A    between atoms: _526  and  _527
REMARK  219  A    between atoms: _532  and  _534
REMARK  220  A    between atoms: _534  and  _535
REMARK  221  A    between atoms: _534  and  _537
REMARK  222  A    between atoms: _537  and  _538
REMARK  223  A    between atoms: _541  and  _543
REMARK  224  A    between atoms: _543  and  _544
REMARK  225  A    between atoms: _543  and  _546
REMARK  226  A    between atoms: _546  and  _547
REMARK  227  A    between atoms: _550  and  _552
REMARK  228  A    between atoms: _552  and  _553
REMARK  229  A    between atoms: _555  and  _557
REMARK  230  A    between atoms: _557  and  _558
REMARK  231  A    between atoms: _557  and  _560
REMARK  232  A    between atoms: _560  and  _561
REMARK  233  A    between atoms: _561  and  _562
REMARK  234  A    between atoms: _562  and  _563
REMARK  235  A    between atoms: _572  and  _574
REMARK  236  A    between atoms: _574  and  _575
REMARK  237  A    between atoms: _574  and  _577
REMARK  238  A    between atoms: _577  and  _578
REMARK                            x       y       z     vdW  Elec       q    Type
REMARK                         _______ _______ _______ _____ _____    ______ ____
ROOT
ATOM      1  O   HOH     1      -6.800 -27.099 -25.045  0.00  0.00    +0.000 OA
ENDROOT
TORSDOF 0
REMARK  Name = ../refined-set-2016/3nu6/3nu6_pocket.pdb
REMARK  238 active torsions:
REMARK  status: ('A' for Active; 'I' for Inactive)
REMARK    1  A    between atoms: _1  and  _3
REMARK    2  A    between atoms: _3  and  _4
REMARK    3  A    between atoms: _3  and  _6
REMARK    4  A    between atoms: _6  and  _7
REMARK    5  A    between atoms: _7  and  _8
REMARK    6  A    between atoms: _8  and  _9
REMARK    7  A    between atoms: _18  and  _20
REMARK    8  A    between atoms: _20  and  _21
REMARK    9  A    between atoms: _20  and  _23
REMARK   10  A    between atoms: _23  and  _24
REMARK   11  A    between atoms: _27  and  _29
REMARK   12  A    between atoms: _29  and  _30
REMARK   13  A    between atoms: _29  and  _32
REMARK   14  A    between atoms: _32  and  _33
REMARK   15  A    between atoms: _36  and  _38
REMARK   16  A    between atoms: _38  and  _39
REMARK   17  A    between atoms: _38  and  _41
REMARK   18  A    between atoms: _41  and  _42
REMARK   19  A    between atoms: _45  and  _47
REMARK   20  A    between atoms: _47  and  _48
REMARK   21  A    between atoms: _47  and  _50
REMARK   22  A    between atoms: _50  and  _51
REMARK   23  A    between atoms: _54  and  _56
REMARK   24  A    between atoms: _56  and  _57
REMARK   25  A    between atoms: _59  and  _61
REMARK   26  A    between atoms: _61  and  _62
REMARK   27  A    between atoms: _65  and  _67
REMARK   28  A    between atoms: _67  and  _68
REMARK   29  A    between atoms: _67  and  _70
REMARK   30  A    between atoms: _70  and  _71
REMARK   31  A    between atoms: _74  and  _76
REMARK   32  A    between atoms: _76  and  _77
REMARK   33  A    between atoms: _76  and  _79
REMARK   34  A    between atoms: _79  and  _80
REMARK   35  A    between atoms: _83  and  _85
REMARK   36  A    between atoms: _85  and  _86
REMARK   37  A    between atoms: _85  and  _88
REMARK   38  A    between atoms: _88  and  _89
REMARK   39  A    between atoms: _92  and  _94
REMARK   40  A    between atoms: _94  and  _95
REMARK   41  A    between atoms: _94  and  _97
REMARK   42  A    between atoms: _100  and  _102
REMARK   43  A    between atoms: _102  and  _103
REMARK   44  A    between atoms: _102  and  _105
REMARK   45  A    between atoms: _106  and  _107
REMARK   46  A    between atoms: _107  and  _108
REMARK   47  A    between atoms: _108  and  _109
REMARK   48  A    between atoms: _113  and  _115
REMARK   49  A    between atoms: _115  and  _116
REMARK   50  A    between atoms: _115  and  _118
REMARK   51  A    between atoms: _118  and  _119
REMARK   52  A    between atoms: _119  and  _120
REMARK   53  A    between atoms: _122  and  _124
REMARK   54  A    between atoms: _124  and  _125
REMARK   55  A    between atoms: _124  and  _127
REMARK   56  A    between atoms: _127  and  _128
REMARK   57  A    between atoms: _131  and  _133
REMARK   58  A    between atoms: _133  and  _134
REMARK   59  A    between atoms: _136  and  _138
REMARK   60  A    between atoms: _138  and  _139
REMARK   61  A    between atoms: _141  and  _143
REMARK   62  A    between atoms: _143  and  _144
REMARK   63  A    between atoms: _143  and  _146
REMARK   64  A    between atoms: _146  and  _147
REMARK   65  A    between atoms: _150  and  _152
REMARK   66  A    between atoms: _152  and  _153
REMARK   67  A    between atoms: _155  and  _157
REMARK   68  A    between atoms: _157  and  _158
REMARK   69  A    between atoms: _160  and  _162
REMARK   70  A    between atoms: _162  and  _163
REMARK   71  A    between atoms: _162  and  _165
REMARK   72  A    between atoms: _165  and  _166
REMARK   73  A    between atoms: _172  and  _174
REMARK   74  A    between atoms: _174  and  _175
REMARK   75  A    between atoms: _174  and  _177
REMARK   76  A    between atoms: _177  and  _178
REMARK   77  A    between atoms: _178  and  _179
REMARK   78  A    between atoms: _181  and  _183
REMARK   79  A    between atoms: _183  and  _184
REMARK   80  A    between atoms: _183  and  _186
REMARK   81  A    between atoms: _189  and  _191
REMARK   82  A    between atoms: _191  and  _192
REMARK   83  A    between atoms: _191  and  _194
REMARK   84  A    between atoms: _194  and  _195
REMARK   85  A    between atoms: _199  and  _200
REMARK   86  A    between atoms: _205  and  _207
REMARK   87  A    between atoms: _207  and  _208
REMARK   88  A    between atoms: _207  and  _210
REMARK   89  A    between atoms: _210  and  _211
REMARK   90  A    between atoms: _215  and  _216
REMARK   91  A    between atoms: _221  and  _223
REMARK   92  A    between atoms: _223  and  _224
REMARK   93  A    between atoms: _223  and  _226
REMARK   94  A    between atoms: _229  and  _231
REMARK   95  A    between atoms: _231  and  _232
REMARK   96  A    between atoms: _231  and  _234
REMARK   97  A    between atoms: _234  and  _235
REMARK   98  A    between atoms: _240  and  _242
REMARK   99  A    between atoms: _242  and  _243
REMARK  100  A    between atoms: _242  and  _245
REMARK  101  A    between atoms: _245  and  _246
REMARK  102  A    between atoms: _249  and  _251
REMARK  103  A    between atoms: _251  and  _252
REMARK  104  A    between atoms: _251  and  _254
REMARK  105  A    between atoms: _254  and  _255
REMARK  106  A    between atoms: _258  and  _260
REMARK  107  A    between atoms: _260  and  _261
REMARK  108  A    between atoms: _263  and  _265
REMARK  109  A    between atoms: _265  and  _266
REMARK  110  A    between atoms: _265  and  _268
REMARK  111  A    between atoms: _268  and  _269
REMARK  112  A    between atoms: _269  and  _270
REMARK  113  A    between atoms: _270  and  _271
REMARK  114  A    between atoms: _280  and  _282
REMARK  115  A    between atoms: _282  and  _283
REMARK  116  A    between atoms: _282  and  _285
REMARK  117  A    between atoms: _285  and  _286
REMARK  118  A    between atoms: _291  and  _293
REMARK  119  A    between atoms: _293  and  _294
REMARK  120  A    between atoms: _293  and  _296
REMARK  121  A    between atoms: _296  and  _297
REMARK  122  A    between atoms: _297  and  _298
REMARK  123  A    between atoms: _298  and  _299
REMARK  124  A    between atoms: _308  and  _310
REMARK  125  A    between atoms: _310  and  _311
REMARK  126  A    between atoms: _310  and  _313
REMARK  127  A    between atoms: _313  and  _314
REMARK  128  A    between atoms: _317  and  _319
REMARK  129  A    between atoms: _319  and  _320
REMARK  130  A    between atoms: _319  and  _322
REMARK  131  A    between atoms: _322  and  _323
REMARK  132  A    between atoms: _326  and  _328
REMARK  133  A    between atoms: _328  and  _329
REMARK  134  A    between atoms: _328  and  _331
REMARK  135  A    between atoms: _331  and  _332
REMARK  136  A    between atoms: _335  and  _337
REMARK  137  A    between atoms: _337  and  _338
REMARK  138  A    between atoms: _337  and  _340
REMARK  139  A    between atoms: _340  and  _341
REMARK  140  A    between atoms: _344  and  _346
REMARK  141  A    between atoms: _346  and  _347
REMARK  142  A    between atoms: _349  and  _351
REMARK  143  A    between atoms: _351  and  _352
REMARK  144  A    between atoms: _355  and  _357
REMARK  145  A    between atoms: _357  and  _358
REMARK  146  A    between atoms: _357  and  _360
REMARK  147  A    between atoms: _360  and  _361
REMARK  148  A    between atoms: _364  and  _366
REMARK  149  A    between atoms: _366  and  _367
REMARK  150  A    between atoms: _366  and  _369
REMARK  151  A    between atoms: _369  and  _370
REMARK  152  A    between atoms: _373  and  _375
REMARK  153  A    between atoms: _375  and  _376
REMARK  154  A    between atoms: _375  and  _378
REMARK  155  A    between atoms: _378  and  _379
REMARK  156  A    between atoms: _382  and  _384
REMARK  157  A    between atoms: _384  and  _385
REMARK  158  A    between atoms: _384  and  _387
REMARK  159  A    between atoms: _390  and  _392
REMARK  160  A    between atoms: _392  and  _393
REMARK  161  A    between atoms: _392  and  _395
REMARK  162  A    between atoms: _395  and  _396
REMARK  163  A    between atoms: _399  and  _401
REMARK  164  A    between atoms: _401  and  _402
REMARK  165  A    between atoms: _401  and  _404
REMARK  166  A    between atoms: _404  and  _405
REMARK  167  A    between atoms: _405  and  _406
REMARK  168  A    between atoms: _406  and  _407
REMARK  169  A    between atoms: _407  and  _408
REMARK  170  A    between atoms: _412  and  _414
REMARK  171  A    between atoms: _414  and  _415
REMARK  172  A    between atoms: _414  and  _417
REMARK  173  A    between atoms: _417  and  _418
REMARK  174  A    between atoms: _418  and  _419
REMARK  175  A    between atoms: _421  and  _423
REMARK  176  A    between atoms: _423  and  _424
REMARK  177  A    between atoms: _423  and  _426
REMARK  178  A    between atoms: _426  and  _427
REMARK  179  A    between atoms: _430  and  _432
REMARK  180  A    between atoms: _432  and  _433
REMARK  181  A    between atoms: _435  and  _437
REMARK  182  A    between atoms: _437  and  _438
REMARK  183  A    between atoms: _440  and  _442
REMARK  184  A    between atoms: _442  and  _443
REMARK  185  A    between atoms: _442  and  _445
REMARK  186  A    between atoms: _445  and  _446
REMARK  187  A    between atoms: _449  and  _451
REMARK  188  A    between atoms: _451  and  _452
REMARK  189  A    between atoms: _454  and  _456
REMARK  190  A    between atoms: _456  and  _457
REMARK  191  A    between atoms: _459  and  _461
REMARK  192  A    between atoms: _461  and  _462
REMARK  193  A    between atoms: _461  and  _464
REMARK  194  A    between atoms: _464  and  _465
REMARK  195  A    between atoms: _471  and  _473
REMARK  196  A    between atoms: _473  and  _474
REMARK  197  A    between atoms: _473  and  _476
REMARK  198  A    between atoms: _476  and  _477
REMARK  199  A    between atoms: _477  and  _478
REMARK  200  A    between atoms: _480  and  _482
REMARK  201  A    between atoms: _482  and  _483
REMARK  202  A    between atoms: _482  and  _485
REMARK  203  A    between atoms: _488  and  _490
REMARK  204  A    between atoms: _490  and  _491
REMARK  205  A    between atoms: _490  and  _493
REMARK  206  A    between atoms: _493  and  _494
REMARK  207  A    between atoms: _497  and  _499
REMARK  208  A    between atoms: _499  and  _500
REMARK  209  A    between atoms: _499  and  _502
REMARK  210  A    between atoms: _502  and  _503
REMARK  211  A    between atoms: _507  and  _508
REMARK  212  A    between atoms: _513  and  _515
REMARK  213  A    between atoms: _515  and  _516
REMARK  214  A    between atoms: _515  and  _518
REMARK  215  A    between atoms: _521  and  _523
REMARK  216  A    between atoms: _523  and  _524
REMARK  217  A    between atoms: _523  and  _526
REMARK  218  A    between atoms: _526  and  _527
REMARK  219  A    between atoms: _532  and  _534
REMARK  220  A    between atoms: _534  and  _535
REMARK  221  A    between atoms: _534  and  _537
REMARK  222  A    between atoms: _537  and  _538
REMARK  223  A    between atoms: _541  and  _543
REMARK  224  A    between atoms: _543  and  _544
REMARK  225  A    between atoms: _543  and  _546
REMARK  226  A    between atoms: _546  and  _547
REMARK  227  A    between atoms: _550  and  _552
REMARK  228  A    between atoms: _552  and  _553
REMARK  229  A    between atoms: _555  and  _557
REMARK  230  A    between atoms: _557  and  _558
REMARK  231  A    between atoms: _557  and  _560
REMARK  232  A    between atoms: _560  and  _561
REMARK  233  A    between atoms: _561  and  _562
REMARK  234  A    between atoms: _562  and  _563
REMARK  235  A    between atoms: _572  and  _574
REMARK  236  A    between atoms: _574  and  _575
REMARK  237  A    between atoms: _574  and  _577
REMARK  238  A    between atoms: _577  and  _578
REMARK                            x       y       z     vdW  Elec       q    Type
REMARK                         _______ _______ _______ _____ _____    ______ ____
ROOT
ATOM      1  O   HOH     1      -4.261 -23.615 -22.567  0.00  0.00    +0.000 OA
ENDROOT
TORSDOF 0
REMARK  Name = ../refined-set-2016/3nu6/3nu6_pocket.pdb
REMARK  238 active torsions:
REMARK  status: ('A' for Active; 'I' for Inactive)
REMARK    1  A    between atoms: _1  and  _3
REMARK    2  A    between atoms: _3  and  _4
REMARK    3  A    between atoms: _3  and  _6
REMARK    4  A    between atoms: _6  and  _7
REMARK    5  A    between atoms: _7  and  _8
REMARK    6  A    between atoms: _8  and  _9
REMARK    7  A    between atoms: _18  and  _20
REMARK    8  A    between atoms: _20  and  _21
REMARK    9  A    between atoms: _20  and  _23
REMARK   10  A    between atoms: _23  and  _24
REMARK   11  A    between atoms: _27  and  _29
REMARK   12  A    between atoms: _29  and  _30
REMARK   13  A    between atoms: _29  and  _32
REMARK   14  A    between atoms: _32  and  _33
REMARK   15  A    between atoms: _36  and  _38
REMARK   16  A    between atoms: _38  and  _39
REMARK   17  A    between atoms: _38  and  _41
REMARK   18  A    between atoms: _41  and  _42
REMARK   19  A    between atoms: _45  and  _47
REMARK   20  A    between atoms: _47  and  _48
REMARK   21  A    between atoms: _47  and  _50
REMARK   22  A    between atoms: _50  and  _51
REMARK   23  A    between atoms: _54  and  _56
REMARK   24  A    between atoms: _56  and  _57
REMARK   25  A    between atoms: _59  and  _61
REMARK   26  A    between atoms: _61  and  _62
REMARK   27  A    between atoms: _65  and  _67
REMARK   28  A    between atoms: _67  and  _68
REMARK   29  A    between atoms: _67  and  _70
REMARK   30  A    between atoms: _70  and  _71
REMARK   31  A    between atoms: _74  and  _76
REMARK   32  A    between atoms: _76  and  _77
REMARK   33  A    between atoms: _76  and  _79
REMARK   34  A    between atoms: _79  and  _80
REMARK   35  A    between atoms: _83  and  _85
REMARK   36  A    between atoms: _85  and  _86
REMARK   37  A    between atoms: _85  and  _88
REMARK   38  A    between atoms: _88  and  _89
REMARK   39  A    between atoms: _92  and  _94
REMARK   40  A    between atoms: _94  and  _95
REMARK   41  A    between atoms: _94  and  _97
REMARK   42  A    between atoms: _100  and  _102
REMARK   43  A    between atoms: _102  and  _103
REMARK   44  A    between atoms: _102  and  _105
REMARK   45  A    between atoms: _106  and  _107
REMARK   46  A    between atoms: _107  and  _108
REMARK   47  A    between atoms: _108  and  _109
REMARK   48  A    between atoms: _113  and  _115
REMARK   49  A    between atoms: _115  and  _116
REMARK   50  A    between atoms: _115  and  _118
REMARK   51  A    between atoms: _118  and  _119
REMARK   52  A    between atoms: _119  and  _120
REMARK   53  A    between atoms: _122  and  _124
REMARK   54  A    between atoms: _124  and  _125
REMARK   55  A    between atoms: _124  and  _127
REMARK   56  A    between atoms: _127  and  _128
REMARK   57  A    between atoms: _131  and  _133
REMARK   58  A    between atoms: _133  and  _134
REMARK   59  A    between atoms: _136  and  _138
REMARK   60  A    between atoms: _138  and  _139
REMARK   61  A    between atoms: _141  and  _143
REMARK   62  A    between atoms: _143  and  _144
REMARK   63  A    between atoms: _143  and  _146
REMARK   64  A    between atoms: _146  and  _147
REMARK   65  A    between atoms: _150  and  _152
REMARK   66  A    between atoms: _152  and  _153
REMARK   67  A    between atoms: _155  and  _157
REMARK   68  A    between atoms: _157  and  _158
REMARK   69  A    between atoms: _160  and  _162
REMARK   70  A    between atoms: _162  and  _163
REMARK   71  A    between atoms: _162  and  _165
REMARK   72  A    between atoms: _165  and  _166
REMARK   73  A    between atoms: _172  and  _174
REMARK   74  A    between atoms: _174  and  _175
REMARK   75  A    between atoms: _174  and  _177
REMARK   76  A    between atoms: _177  and  _178
REMARK   77  A    between atoms: _178  and  _179
REMARK   78  A    between atoms: _181  and  _183
REMARK   79  A    between atoms: _183  and  _184
REMARK   80  A    between atoms: _183  and  _186
REMARK   81  A    between atoms: _189  and  _191
REMARK   82  A    between atoms: _191  and  _192
REMARK   83  A    between atoms: _191  and  _194
REMARK   84  A    between atoms: _194  and  _195
REMARK   85  A    between atoms: _199  and  _200
REMARK   86  A    between atoms: _205  and  _207
REMARK   87  A    between atoms: _207  and  _208
REMARK   88  A    between atoms: _207  and  _210
REMARK   89  A    between atoms: _210  and  _211
REMARK   90  A    between atoms: _215  and  _216
REMARK   91  A    between atoms: _221  and  _223
REMARK   92  A    between atoms: _223  and  _224
REMARK   93  A    between atoms: _223  and  _226
REMARK   94  A    between atoms: _229  and  _231
REMARK   95  A    between atoms: _231  and  _232
REMARK   96  A    between atoms: _231  and  _234
REMARK   97  A    between atoms: _234  and  _235
REMARK   98  A    between atoms: _240  and  _242
REMARK   99  A    between atoms: _242  and  _243
REMARK  100  A    between atoms: _242  and  _245
REMARK  101  A    between atoms: _245  and  _246
REMARK  102  A    between atoms: _249  and  _251
REMARK  103  A    between atoms: _251  and  _252
REMARK  104  A    between atoms: _251  and  _254
REMARK  105  A    between atoms: _254  and  _255
REMARK  106  A    between atoms: _258  and  _260
REMARK  107  A    between atoms: _260  and  _261
REMARK  108  A    between atoms: _263  and  _265
REMARK  109  A    between atoms: _265  and  _266
REMARK  110  A    between atoms: _265  and  _268
REMARK  111  A    between atoms: _268  and  _269
REMARK  112  A    between atoms: _269  and  _270
REMARK  113  A    between atoms: _270  and  _271
REMARK  114  A    between atoms: _280  and  _282
REMARK  115  A    between atoms: _282  and  _283
REMARK  116  A    between atoms: _282  and  _285
REMARK  117  A    between atoms: _285  and  _286
REMARK  118  A    between atoms: _291  and  _293
REMARK  119  A    between atoms: _293  and  _294
REMARK  120  A    between atoms: _293  and  _296
REMARK  121  A    between atoms: _296  and  _297
REMARK  122  A    between atoms: _297  and  _298
REMARK  123  A    between atoms: _298  and  _299
REMARK  124  A    between atoms: _308  and  _310
REMARK  125  A    between atoms: _310  and  _311
REMARK  126  A    between atoms: _310  and  _313
REMARK  127  A    between atoms: _313  and  _314
REMARK  128  A    between atoms: _317  and  _319
REMARK  129  A    between atoms: _319  and  _320
REMARK  130  A    between atoms: _319  and  _322
REMARK  131  A    between atoms: _322  and  _323
REMARK  132  A    between atoms: _326  and  _328
REMARK  133  A    between atoms: _328  and  _329
REMARK  134  A    between atoms: _328  and  _331
REMARK  135  A    between atoms: _331  and  _332
REMARK  136  A    between atoms: _335  and  _337
REMARK  137  A    between atoms: _337  and  _338
REMARK  138  A    between atoms: _337  and  _340
REMARK  139  A    between atoms: _340  and  _341
REMARK  140  A    between atoms: _344  and  _346
REMARK  141  A    between atoms: _346  and  _347
REMARK  142  A    between atoms: _349  and  _351
REMARK  143  A    between atoms: _351  and  _352
REMARK  144  A    between atoms: _355  and  _357
REMARK  145  A    between atoms: _357  and  _358
REMARK  146  A    between atoms: _357  and  _360
REMARK  147  A    between atoms: _360  and  _361
REMARK  148  A    between atoms: _364  and  _366
REMARK  149  A    between atoms: _366  and  _367
REMARK  150  A    between atoms: _366  and  _369
REMARK  151  A    between atoms: _369  and  _370
REMARK  152  A    between atoms: _373  and  _375
REMARK  153  A    between atoms: _375  and  _376
REMARK  154  A    between atoms: _375  and  _378
REMARK  155  A    between atoms: _378  and  _379
REMARK  156  A    between atoms: _382  and  _384
REMARK  157  A    between atoms: _384  and  _385
REMARK  158  A    between atoms: _384  and  _387
REMARK  159  A    between atoms: _390  and  _392
REMARK  160  A    between atoms: _392  and  _393
REMARK  161  A    between atoms: _392  and  _395
REMARK  162  A    between atoms: _395  and  _396
REMARK  163  A    between atoms: _399  and  _401
REMARK  164  A    between atoms: _401  and  _402
REMARK  165  A    between atoms: _401  and  _404
REMARK  166  A    between atoms: _404  and  _405
REMARK  167  A    between atoms: _405  and  _406
REMARK  168  A    between atoms: _406  and  _407
REMARK  169  A    between atoms: _407  and  _408
REMARK  170  A    between atoms: _412  and  _414
REMARK  171  A    between atoms: _414  and  _415
REMARK  172  A    between atoms: _414  and  _417
REMARK  173  A    between atoms: _417  and  _418
REMARK  174  A    between atoms: _418  and  _419
REMARK  175  A    between atoms: _421  and  _423
REMARK  176  A    between atoms: _423  and  _424
REMARK  177  A    between atoms: _423  and  _426
REMARK  178  A    between atoms: _426  and  _427
REMARK  179  A    between atoms: _430  and  _432
REMARK  180  A    between atoms: _432  and  _433
REMARK  181  A    between atoms: _435  and  _437
REMARK  182  A    between atoms: _437  and  _438
REMARK  183  A    between atoms: _440  and  _442
REMARK  184  A    between atoms: _442  and  _443
REMARK  185  A    between atoms: _442  and  _445
REMARK  186  A    between atoms: _445  and  _446
REMARK  187  A    between atoms: _449  and  _451
REMARK  188  A    between atoms: _451  and  _452
REMARK  189  A    between atoms: _454  and  _456
REMARK  190  A    between atoms: _456  and  _457
REMARK  191  A    between atoms: _459  and  _461
REMARK  192  A    between atoms: _461  and  _462
REMARK  193  A    between atoms: _461  and  _464
REMARK  194  A    between atoms: _464  and  _465
REMARK  195  A    between atoms: _471  and  _473
REMARK  196  A    between atoms: _473  and  _474
REMARK  197  A    between atoms: _473  and  _476
REMARK  198  A    between atoms: _476  and  _477
REMARK  199  A    between atoms: _477  and  _478
REMARK  200  A    between atoms: _480  and  _482
REMARK  201  A    between atoms: _482  and  _483
REMARK  202  A    between atoms: _482  and  _485
REMARK  203  A    between atoms: _488  and  _490
REMARK  204  A    between atoms: _490  and  _491
REMARK  205  A    between atoms: _490  and  _493
REMARK  206  A    between atoms: _493  and  _494
REMARK  207  A    between atoms: _497  and  _499
REMARK  208  A    between atoms: _499  and  _500
REMARK  209  A    between atoms: _499  and  _502
REMARK  210  A    between atoms: _502  and  _503
REMARK  211  A    between atoms: _507  and  _508
REMARK  212  A    between atoms: _513  and  _515
REMARK  213  A    between atoms: _515  and  _516
REMARK  214  A    between atoms: _515  and  _518
REMARK  215  A    between atoms: _521  and  _523
REMARK  216  A    between atoms: _523  and  _524
REMARK  217  A    between atoms: _523  and  _526
REMARK  218  A    between atoms: _526  and  _527
REMARK  219  A    between atoms: _532  and  _534
REMARK  220  A    between atoms: _534  and  _535
REMARK  221  A    between atoms: _534  and  _537
REMARK  222  A    between atoms: _537  and  _538
REMARK  223  A    between atoms: _541  and  _543
REMARK  224  A    between atoms: _543  and  _544
REMARK  225  A    between atoms: _543  and  _546
REMARK  226  A    between atoms: _546  and  _547
REMARK  227  A    between atoms: _550  and  _552
REMARK  228  A    between atoms: _552  and  _553
REMARK  229  A    between atoms: _555  and  _557
REMARK  230  A    between atoms: _557  and  _558
REMARK  231  A    between atoms: _557  and  _560
REMARK  232  A    between atoms: _560  and  _561
REMARK  233  A    between atoms: _561  and  _562
REMARK  234  A    between atoms: _562  and  _563
REMARK  235  A    between atoms: _572  and  _574
REMARK  236  A    between atoms: _574  and  _575
REMARK  237  A    between atoms: _574  and  _577
REMARK  238  A    between atoms: _577  and  _578
REMARK                            x       y       z     vdW  Elec       q    Type
REMARK                         _______ _______ _______ _____ _____    ______ ____
ROOT
ATOM      1  O   HOH     1      -8.850 -27.995 -18.938  0.00  0.00    +0.000 OA
ENDROOT
TORSDOF 0
REMARK  Name = ../refined-set-2016/3nu6/3nu6_pocket.pdb
REMARK  238 active torsions:
REMARK  status: ('A' for Active; 'I' for Inactive)
REMARK    1  A    between atoms: _1  and  _3
REMARK    2  A    between atoms: _3  and  _4
REMARK    3  A    between atoms: _3  and  _6
REMARK    4  A    between atoms: _6  and  _7
REMARK    5  A    between atoms: _7  and  _8
REMARK    6  A    between atoms: _8  and  _9
REMARK    7  A    between atoms: _18  and  _20
REMARK    8  A    between atoms: _20  and  _21
REMARK    9  A    between atoms: _20  and  _23
REMARK   10  A    between atoms: _23  and  _24
REMARK   11  A    between atoms: _27  and  _29
REMARK   12  A    between atoms: _29  and  _30
REMARK   13  A    between atoms: _29  and  _32
REMARK   14  A    between atoms: _32  and  _33
REMARK   15  A    between atoms: _36  and  _38
REMARK   16  A    between atoms: _38  and  _39
REMARK   17  A    between atoms: _38  and  _41
REMARK   18  A    between atoms: _41  and  _42
REMARK   19  A    between atoms: _45  and  _47
REMARK   20  A    between atoms: _47  and  _48
REMARK   21  A    between atoms: _47  and  _50
REMARK   22  A    between atoms: _50  and  _51
REMARK   23  A    between atoms: _54  and  _56
REMARK   24  A    between atoms: _56  and  _57
REMARK   25  A    between atoms: _59  and  _61
REMARK   26  A    between atoms: _61  and  _62
REMARK   27  A    between atoms: _65  and  _67
REMARK   28  A    between atoms: _67  and  _68
REMARK   29  A    between atoms: _67  and  _70
REMARK   30  A    between atoms: _70  and  _71
REMARK   31  A    between atoms: _74  and  _76
REMARK   32  A    between atoms: _76  and  _77
REMARK   33  A    between atoms: _76  and  _79
REMARK   34  A    between atoms: _79  and  _80
REMARK   35  A    between atoms: _83  and  _85
REMARK   36  A    between atoms: _85  and  _86
REMARK   37  A    between atoms: _85  and  _88
REMARK   38  A    between atoms: _88  and  _89
REMARK   39  A    between atoms: _92  and  _94
REMARK   40  A    between atoms: _94  and  _95
REMARK   41  A    between atoms: _94  and  _97
REMARK   42  A    between atoms: _100  and  _102
REMARK   43  A    between atoms: _102  and  _103
REMARK   44  A    between atoms: _102  and  _105
REMARK   45  A    between atoms: _106  and  _107
REMARK   46  A    between atoms: _107  and  _108
REMARK   47  A    between atoms: _108  and  _109
REMARK   48  A    between atoms: _113  and  _115
REMARK   49  A    between atoms: _115  and  _116
REMARK   50  A    between atoms: _115  and  _118
REMARK   51  A    between atoms: _118  and  _119
REMARK   52  A    between atoms: _119  and  _120
REMARK   53  A    between atoms: _122  and  _124
REMARK   54  A    between atoms: _124  and  _125
REMARK   55  A    between atoms: _124  and  _127
REMARK   56  A    between atoms: _127  and  _128
REMARK   57  A    between atoms: _131  and  _133
REMARK   58  A    between atoms: _133  and  _134
REMARK   59  A    between atoms: _136  and  _138
REMARK   60  A    between atoms: _138  and  _139
REMARK   61  A    between atoms: _141  and  _143
REMARK   62  A    between atoms: _143  and  _144
REMARK   63  A    between atoms: _143  and  _146
REMARK   64  A    between atoms: _146  and  _147
REMARK   65  A    between atoms: _150  and  _152
REMARK   66  A    between atoms: _152  and  _153
REMARK   67  A    between atoms: _155  and  _157
REMARK   68  A    between atoms: _157  and  _158
REMARK   69  A    between atoms: _160  and  _162
REMARK   70  A    between atoms: _162  and  _163
REMARK   71  A    between atoms: _162  and  _165
REMARK   72  A    between atoms: _165  and  _166
REMARK   73  A    between atoms: _172  and  _174
REMARK   74  A    between atoms: _174  and  _175
REMARK   75  A    between atoms: _174  and  _177
REMARK   76  A    between atoms: _177  and  _178
REMARK   77  A    between atoms: _178  and  _179
REMARK   78  A    between atoms: _181  and  _183
REMARK   79  A    between atoms: _183  and  _184
REMARK   80  A    between atoms: _183  and  _186
REMARK   81  A    between atoms: _189  and  _191
REMARK   82  A    between atoms: _191  and  _192
REMARK   83  A    between atoms: _191  and  _194
REMARK   84  A    between atoms: _194  and  _195
REMARK   85  A    between atoms: _199  and  _200
REMARK   86  A    between atoms: _205  and  _207
REMARK   87  A    between atoms: _207  and  _208
REMARK   88  A    between atoms: _207  and  _210
REMARK   89  A    between atoms: _210  and  _211
REMARK   90  A    between atoms: _215  and  _216
REMARK   91  A    between atoms: _221  and  _223
REMARK   92  A    between atoms: _223  and  _224
REMARK   93  A    between atoms: _223  and  _226
REMARK   94  A    between atoms: _229  and  _231
REMARK   95  A    between atoms: _231  and  _232
REMARK   96  A    between atoms: _231  and  _234
REMARK   97  A    between atoms: _234  and  _235
REMARK   98  A    between atoms: _240  and  _242
REMARK   99  A    between atoms: _242  and  _243
REMARK  100  A    between atoms: _242  and  _245
REMARK  101  A    between atoms: _245  and  _246
REMARK  102  A    between atoms: _249  and  _251
REMARK  103  A    between atoms: _251  and  _252
REMARK  104  A    between atoms: _251  and  _254
REMARK  105  A    between atoms: _254  and  _255
REMARK  106  A    between atoms: _258  and  _260
REMARK  107  A    between atoms: _260  and  _261
REMARK  108  A    between atoms: _263  and  _265
REMARK  109  A    between atoms: _265  and  _266
REMARK  110  A    between atoms: _265  and  _268
REMARK  111  A    between atoms: _268  and  _269
REMARK  112  A    between atoms: _269  and  _270
REMARK  113  A    between atoms: _270  and  _271
REMARK  114  A    between atoms: _280  and  _282
REMARK  115  A    between atoms: _282  and  _283
REMARK  116  A    between atoms: _282  and  _285
REMARK  117  A    between atoms: _285  and  _286
REMARK  118  A    between atoms: _291  and  _293
REMARK  119  A    between atoms: _293  and  _294
REMARK  120  A    between atoms: _293  and  _296
REMARK  121  A    between atoms: _296  and  _297
REMARK  122  A    between atoms: _297  and  _298
REMARK  123  A    between atoms: _298  and  _299
REMARK  124  A    between atoms: _308  and  _310
REMARK  125  A    between atoms: _310  and  _311
REMARK  126  A    between atoms: _310  and  _313
REMARK  127  A    between atoms: _313  and  _314
REMARK  128  A    between atoms: _317  and  _319
REMARK  129  A    between atoms: _319  and  _320
REMARK  130  A    between atoms: _319  and  _322
REMARK  131  A    between atoms: _322  and  _323
REMARK  132  A    between atoms: _326  and  _328
REMARK  133  A    between atoms: _328  and  _329
REMARK  134  A    between atoms: _328  and  _331
REMARK  135  A    between atoms: _331  and  _332
REMARK  136  A    between atoms: _335  and  _337
REMARK  137  A    between atoms: _337  and  _338
REMARK  138  A    between atoms: _337  and  _340
REMARK  139  A    between atoms: _340  and  _341
REMARK  140  A    between atoms: _344  and  _346
REMARK  141  A    between atoms: _346  and  _347
REMARK  142  A    between atoms: _349  and  _351
REMARK  143  A    between atoms: _351  and  _352
REMARK  144  A    between atoms: _355  and  _357
REMARK  145  A    between atoms: _357  and  _358
REMARK  146  A    between atoms: _357  and  _360
REMARK  147  A    between atoms: _360  and  _361
REMARK  148  A    between atoms: _364  and  _366
REMARK  149  A    between atoms: _366  and  _367
REMARK  150  A    between atoms: _366  and  _369
REMARK  151  A    between atoms: _369  and  _370
REMARK  152  A    between atoms: _373  and  _375
REMARK  153  A    between atoms: _375  and  _376
REMARK  154  A    between atoms: _375  and  _378
REMARK  155  A    between atoms: _378  and  _379
REMARK  156  A    between atoms: _382  and  _384
REMARK  157  A    between atoms: _384  and  _385
REMARK  158  A    between atoms: _384  and  _387
REMARK  159  A    between atoms: _390  and  _392
REMARK  160  A    between atoms: _392  and  _393
REMARK  161  A    between atoms: _392  and  _395
REMARK  162  A    between atoms: _395  and  _396
REMARK  163  A    between atoms: _399  and  _401
REMARK  164  A    between atoms: _401  and  _402
REMARK  165  A    between atoms: _401  and  _404
REMARK  166  A    between atoms: _404  and  _405
REMARK  167  A    between atoms: _405  and  _406
REMARK  168  A    between atoms: _406  and  _407
REMARK  169  A    between atoms: _407  and  _408
REMARK  170  A    between atoms: _412  and  _414
REMARK  171  A    between atoms: _414  and  _415
REMARK  172  A    between atoms: _414  and  _417
REMARK  173  A    between atoms: _417  and  _418
REMARK  174  A    between atoms: _418  and  _419
REMARK  175  A    between atoms: _421  and  _423
REMARK  176  A    between atoms: _423  and  _424
REMARK  177  A    between atoms: _423  and  _426
REMARK  178  A    between atoms: _426  and  _427
REMARK  179  A    between atoms: _430  and  _432
REMARK  180  A    between atoms: _432  and  _433
REMARK  181  A    between atoms: _435  and  _437
REMARK  182  A    between atoms: _437  and  _438
REMARK  183  A    between atoms: _440  and  _442
REMARK  184  A    between atoms: _442  and  _443
REMARK  185  A    between atoms: _442  and  _445
REMARK  186  A    between atoms: _445  and  _446
REMARK  187  A    between atoms: _449  and  _451
REMARK  188  A    between atoms: _451  and  _452
REMARK  189  A    between atoms: _454  and  _456
REMARK  190  A    between atoms: _456  and  _457
REMARK  191  A    between atoms: _459  and  _461
REMARK  192  A    between atoms: _461  and  _462
REMARK  193  A    between atoms: _461  and  _464
REMARK  194  A    between atoms: _464  and  _465
REMARK  195  A    between atoms: _471  and  _473
REMARK  196  A    between atoms: _473  and  _474
REMARK  197  A    between atoms: _473  and  _476
REMARK  198  A    between atoms: _476  and  _477
REMARK  199  A    between atoms: _477  and  _478
REMARK  200  A    between atoms: _480  and  _482
REMARK  201  A    between atoms: _482  and  _483
REMARK  202  A    between atoms: _482  and  _485
REMARK  203  A    between atoms: _488  and  _490
REMARK  204  A    between atoms: _490  and  _491
REMARK  205  A    between atoms: _490  and  _493
REMARK  206  A    between atoms: _493  and  _494
REMARK  207  A    between atoms: _497  and  _499
REMARK  208  A    between atoms: _499  and  _500
REMARK  209  A    between atoms: _499  and  _502
REMARK  210  A    between atoms: _502  and  _503
REMARK  211  A    between atoms: _507  and  _508
REMARK  212  A    between atoms: _513  and  _515
REMARK  213  A    between atoms: _515  and  _516
REMARK  214  A    between atoms: _515  and  _518
REMARK  215  A    between atoms: _521  and  _523
REMARK  216  A    between atoms: _523  and  _524
REMARK  217  A    between atoms: _523  and  _526
REMARK  218  A    between atoms: _526  and  _527
REMARK  219  A    between atoms: _532  and  _534
REMARK  220  A    between atoms: _534  and  _535
REMARK  221  A    between atoms: _534  and  _537
REMARK  222  A    between atoms: _537  and  _538
REMARK  223  A    between atoms: _541  and  _543
REMARK  224  A    between atoms: _543  and  _544
REMARK  225  A    between atoms: _543  and  _546
REMARK  226  A    between atoms: _546  and  _547
REMARK  227  A    between atoms: _550  and  _552
REMARK  228  A    between atoms: _552  and  _553
REMARK  229  A    between atoms: _555  and  _557
REMARK  230  A    between atoms: _557  and  _558
REMARK  231  A    between atoms: _557  and  _560
REMARK  232  A    between atoms: _560  and  _561
REMARK  233  A    between atoms: _561  and  _562
REMARK  234  A    between atoms: _562  and  _563
REMARK  235  A    between atoms: _572  and  _574
REMARK  236  A    between atoms: _574  and  _575
REMARK  237  A    between atoms: _574  and  _577
REMARK  238  A    between atoms: _577  and  _578
REMARK                            x       y       z     vdW  Elec       q    Type
REMARK                         _______ _______ _______ _____ _____    ______ ____
ROOT
ATOM      1  O   HOH     1      -6.831 -26.928 -17.982  0.00  0.00    +0.000 OA
ENDROOT
TORSDOF 0
REMARK  Name = ../refined-set-2016/3nu6/3nu6_pocket.pdb
REMARK  238 active torsions:
REMARK  status: ('A' for Active; 'I' for Inactive)
REMARK    1  A    between atoms: _1  and  _3
REMARK    2  A    between atoms: _3  and  _4
REMARK    3  A    between atoms: _3  and  _6
REMARK    4  A    between atoms: _6  and  _7
REMARK    5  A    between atoms: _7  and  _8
REMARK    6  A    between atoms: _8  and  _9
REMARK    7  A    between atoms: _18  and  _20
REMARK    8  A    between atoms: _20  and  _21
REMARK    9  A    between atoms: _20  and  _23
REMARK   10  A    between atoms: _23  and  _24
REMARK   11  A    between atoms: _27  and  _29
REMARK   12  A    between atoms: _29  and  _30
REMARK   13  A    between atoms: _29  and  _32
REMARK   14  A    between atoms: _32  and  _33
REMARK   15  A    between atoms: _36  and  _38
REMARK   16  A    between atoms: _38  and  _39
REMARK   17  A    between atoms: _38  and  _41
REMARK   18  A    between atoms: _41  and  _42
REMARK   19  A    between atoms: _45  and  _47
REMARK   20  A    between atoms: _47  and  _48
REMARK   21  A    between atoms: _47  and  _50
REMARK   22  A    between atoms: _50  and  _51
REMARK   23  A    between atoms: _54  and  _56
REMARK   24  A    between atoms: _56  and  _57
REMARK   25  A    between atoms: _59  and  _61
REMARK   26  A    between atoms: _61  and  _62
REMARK   27  A    between atoms: _65  and  _67
REMARK   28  A    between atoms: _67  and  _68
REMARK   29  A    between atoms: _67  and  _70
REMARK   30  A    between atoms: _70  and  _71
REMARK   31  A    between atoms: _74  and  _76
REMARK   32  A    between atoms: _76  and  _77
REMARK   33  A    between atoms: _76  and  _79
REMARK   34  A    between atoms: _79  and  _80
REMARK   35  A    between atoms: _83  and  _85
REMARK   36  A    between atoms: _85  and  _86
REMARK   37  A    between atoms: _85  and  _88
REMARK   38  A    between atoms: _88  and  _89
REMARK   39  A    between atoms: _92  and  _94
REMARK   40  A    between atoms: _94  and  _95
REMARK   41  A    between atoms: _94  and  _97
REMARK   42  A    between atoms: _100  and  _102
REMARK   43  A    between atoms: _102  and  _103
REMARK   44  A    between atoms: _102  and  _105
REMARK   45  A    between atoms: _106  and  _107
REMARK   46  A    between atoms: _107  and  _108
REMARK   47  A    between atoms: _108  and  _109
REMARK   48  A    between atoms: _113  and  _115
REMARK   49  A    between atoms: _115  and  _116
REMARK   50  A    between atoms: _115  and  _118
REMARK   51  A    between atoms: _118  and  _119
REMARK   52  A    between atoms: _119  and  _120
REMARK   53  A    between atoms: _122  and  _124
REMARK   54  A    between atoms: _124  and  _125
REMARK   55  A    between atoms: _124  and  _127
REMARK   56  A    between atoms: _127  and  _128
REMARK   57  A    between atoms: _131  and  _133
REMARK   58  A    between atoms: _133  and  _134
REMARK   59  A    between atoms: _136  and  _138
REMARK   60  A    between atoms: _138  and  _139
REMARK   61  A    between atoms: _141  and  _143
REMARK   62  A    between atoms: _143  and  _144
REMARK   63  A    between atoms: _143  and  _146
REMARK   64  A    between atoms: _146  and  _147
REMARK   65  A    between atoms: _150  and  _152
REMARK   66  A    between atoms: _152  and  _153
REMARK   67  A    between atoms: _155  and  _157
REMARK   68  A    between atoms: _157  and  _158
REMARK   69  A    between atoms: _160  and  _162
REMARK   70  A    between atoms: _162  and  _163
REMARK   71  A    between atoms: _162  and  _165
REMARK   72  A    between atoms: _165  and  _166
REMARK   73  A    between atoms: _172  and  _174
REMARK   74  A    between atoms: _174  and  _175
REMARK   75  A    between atoms: _174  and  _177
REMARK   76  A    between atoms: _177  and  _178
REMARK   77  A    between atoms: _178  and  _179
REMARK   78  A    between atoms: _181  and  _183
REMARK   79  A    between atoms: _183  and  _184
REMARK   80  A    between atoms: _183  and  _186
REMARK   81  A    between atoms: _189  and  _191
REMARK   82  A    between atoms: _191  and  _192
REMARK   83  A    between atoms: _191  and  _194
REMARK   84  A    between atoms: _194  and  _195
REMARK   85  A    between atoms: _199  and  _200
REMARK   86  A    between atoms: _205  and  _207
REMARK   87  A    between atoms: _207  and  _208
REMARK   88  A    between atoms: _207  and  _210
REMARK   89  A    between atoms: _210  and  _211
REMARK   90  A    between atoms: _215  and  _216
REMARK   91  A    between atoms: _221  and  _223
REMARK   92  A    between atoms: _223  and  _224
REMARK   93  A    between atoms: _223  and  _226
REMARK   94  A    between atoms: _229  and  _231
REMARK   95  A    between atoms: _231  and  _232
REMARK   96  A    between atoms: _231  and  _234
REMARK   97  A    between atoms: _234  and  _235
REMARK   98  A    between atoms: _240  and  _242
REMARK   99  A    between atoms: _242  and  _243
REMARK  100  A    between atoms: _242  and  _245
REMARK  101  A    between atoms: _245  and  _246
REMARK  102  A    between atoms: _249  and  _251
REMARK  103  A    between atoms: _251  and  _252
REMARK  104  A    between atoms: _251  and  _254
REMARK  105  A    between atoms: _254  and  _255
REMARK  106  A    between atoms: _258  and  _260
REMARK  107  A    between atoms: _260  and  _261
REMARK  108  A    between atoms: _263  and  _265
REMARK  109  A    between atoms: _265  and  _266
REMARK  110  A    between atoms: _265  and  _268
REMARK  111  A    between atoms: _268  and  _269
REMARK  112  A    between atoms: _269  and  _270
REMARK  113  A    between atoms: _270  and  _271
REMARK  114  A    between atoms: _280  and  _282
REMARK  115  A    between atoms: _282  and  _283
REMARK  116  A    between atoms: _282  and  _285
REMARK  117  A    between atoms: _285  and  _286
REMARK  118  A    between atoms: _291  and  _293
REMARK  119  A    between atoms: _293  and  _294
REMARK  120  A    between atoms: _293  and  _296
REMARK  121  A    between atoms: _296  and  _297
REMARK  122  A    between atoms: _297  and  _298
REMARK  123  A    between atoms: _298  and  _299
REMARK  124  A    between atoms: _308  and  _310
REMARK  125  A    between atoms: _310  and  _311
REMARK  126  A    between atoms: _310  and  _313
REMARK  127  A    between atoms: _313  and  _314
REMARK  128  A    between atoms: _317  and  _319
REMARK  129  A    between atoms: _319  and  _320
REMARK  130  A    between atoms: _319  and  _322
REMARK  131  A    between atoms: _322  and  _323
REMARK  132  A    between atoms: _326  and  _328
REMARK  133  A    between atoms: _328  and  _329
REMARK  134  A    between atoms: _328  and  _331
REMARK  135  A    between atoms: _331  and  _332
REMARK  136  A    between atoms: _335  and  _337
REMARK  137  A    between atoms: _337  and  _338
REMARK  138  A    between atoms: _337  and  _340
REMARK  139  A    between atoms: _340  and  _341
REMARK  140  A    between atoms: _344  and  _346
REMARK  141  A    between atoms: _346  and  _347
REMARK  142  A    between atoms: _349  and  _351
REMARK  143  A    between atoms: _351  and  _352
REMARK  144  A    between atoms: _355  and  _357
REMARK  145  A    between atoms: _357  and  _358
REMARK  146  A    between atoms: _357  and  _360
REMARK  147  A    between atoms: _360  and  _361
REMARK  148  A    between atoms: _364  and  _366
REMARK  149  A    between atoms: _366  and  _367
REMARK  150  A    between atoms: _366  and  _369
REMARK  151  A    between atoms: _369  and  _370
REMARK  152  A    between atoms: _373  and  _375
REMARK  153  A    between atoms: _375  and  _376
REMARK  154  A    between atoms: _375  and  _378
REMARK  155  A    between atoms: _378  and  _379
REMARK  156  A    between atoms: _382  and  _384
REMARK  157  A    between atoms: _384  and  _385
REMARK  158  A    between atoms: _384  and  _387
REMARK  159  A    between atoms: _390  and  _392
REMARK  160  A    between atoms: _392  and  _393
REMARK  161  A    between atoms: _392  and  _395
REMARK  162  A    between atoms: _395  and  _396
REMARK  163  A    between atoms: _399  and  _401
REMARK  164  A    between atoms: _401  and  _402
REMARK  165  A    between atoms: _401  and  _404
REMARK  166  A    between atoms: _404  and  _405
REMARK  167  A    between atoms: _405  and  _406
REMARK  168  A    between atoms: _406  and  _407
REMARK  169  A    between atoms: _407  and  _408
REMARK  170  A    between atoms: _412  and  _414
REMARK  171  A    between atoms: _414  and  _415
REMARK  172  A    between atoms: _414  and  _417
REMARK  173  A    between atoms: _417  and  _418
REMARK  174  A    between atoms: _418  and  _419
REMARK  175  A    between atoms: _421  and  _423
REMARK  176  A    between atoms: _423  and  _424
REMARK  177  A    between atoms: _423  and  _426
REMARK  178  A    between atoms: _426  and  _427
REMARK  179  A    between atoms: _430  and  _432
REMARK  180  A    between atoms: _432  and  _433
REMARK  181  A    between atoms: _435  and  _437
REMARK  182  A    between atoms: _437  and  _438
REMARK  183  A    between atoms: _440  and  _442
REMARK  184  A    between atoms: _442  and  _443
REMARK  185  A    between atoms: _442  and  _445
REMARK  186  A    between atoms: _445  and  _446
REMARK  187  A    between atoms: _449  and  _451
REMARK  188  A    between atoms: _451  and  _452
REMARK  189  A    between atoms: _454  and  _456
REMARK  190  A    between atoms: _456  and  _457
REMARK  191  A    between atoms: _459  and  _461
REMARK  192  A    between atoms: _461  and  _462
REMARK  193  A    between atoms: _461  and  _464
REMARK  194  A    between atoms: _464  and  _465
REMARK  195  A    between atoms: _471  and  _473
REMARK  196  A    between atoms: _473  and  _474
REMARK  197  A    between atoms: _473  and  _476
REMARK  198  A    between atoms: _476  and  _477
REMARK  199  A    between atoms: _477  and  _478
REMARK  200  A    between atoms: _480  and  _482
REMARK  201  A    between atoms: _482  and  _483
REMARK  202  A    between atoms: _482  and  _485
REMARK  203  A    between atoms: _488  and  _490
REMARK  204  A    between atoms: _490  and  _491
REMARK  205  A    between atoms: _490  and  _493
REMARK  206  A    between atoms: _493  and  _494
REMARK  207  A    between atoms: _497  and  _499
REMARK  208  A    between atoms: _499  and  _500
REMARK  209  A    between atoms: _499  and  _502
REMARK  210  A    between atoms: _502  and  _503
REMARK  211  A    between atoms: _507  and  _508
REMARK  212  A    between atoms: _513  and  _515
REMARK  213  A    between atoms: _515  and  _516
REMARK  214  A    between atoms: _515  and  _518
REMARK  215  A    between atoms: _521  and  _523
REMARK  216  A    between atoms: _523  and  _524
REMARK  217  A    between atoms: _523  and  _526
REMARK  218  A    between atoms: _526  and  _527
REMARK  219  A    between atoms: _532  and  _534
REMARK  220  A    between atoms: _534  and  _535
REMARK  221  A    between atoms: _534  and  _537
REMARK  222  A    between atoms: _537  and  _538
REMARK  223  A    between atoms: _541  and  _543
REMARK  224  A    between atoms: _543  and  _544
REMARK  225  A    between atoms: _543  and  _546
REMARK  226  A    between atoms: _546  and  _547
REMARK  227  A    between atoms: _550  and  _552
REMARK  228  A    between atoms: _552  and  _553
REMARK  229  A    between atoms: _555  and  _557
REMARK  230  A    between atoms: _557  and  _558
REMARK  231  A    between atoms: _557  and  _560
REMARK  232  A    between atoms: _560  and  _561
REMARK  233  A    between atoms: _561  and  _562
REMARK  234  A    between atoms: _562  and  _563
REMARK  235  A    between atoms: _572  and  _574
REMARK  236  A    between atoms: _574  and  _575
REMARK  237  A    between atoms: _574  and  _577
REMARK  238  A    between atoms: _577  and  _578
REMARK                            x       y       z     vdW  Elec       q    Type
REMARK                         _______ _______ _______ _____ _____    ______ ____
ROOT
ATOM      1  O   HOH     1     -11.193 -27.201  -9.258  0.00  0.00    +0.000 OA
ENDROOT
TORSDOF 0
REMARK  Name = ../refined-set-2016/3nu6/3nu6_pocket.pdb
REMARK  238 active torsions:
REMARK  status: ('A' for Active; 'I' for Inactive)
REMARK    1  A    between atoms: _1  and  _3
REMARK    2  A    between atoms: _3  and  _4
REMARK    3  A    between atoms: _3  and  _6
REMARK    4  A    between atoms: _6  and  _7
REMARK    5  A    between atoms: _7  and  _8
REMARK    6  A    between atoms: _8  and  _9
REMARK    7  A    between atoms: _18  and  _20
REMARK    8  A    between atoms: _20  and  _21
REMARK    9  A    between atoms: _20  and  _23
REMARK   10  A    between atoms: _23  and  _24
REMARK   11  A    between atoms: _27  and  _29
REMARK   12  A    between atoms: _29  and  _30
REMARK   13  A    between atoms: _29  and  _32
REMARK   14  A    between atoms: _32  and  _33
REMARK   15  A    between atoms: _36  and  _38
REMARK   16  A    between atoms: _38  and  _39
REMARK   17  A    between atoms: _38  and  _41
REMARK   18  A    between atoms: _41  and  _42
REMARK   19  A    between atoms: _45  and  _47
REMARK   20  A    between atoms: _47  and  _48
REMARK   21  A    between atoms: _47  and  _50
REMARK   22  A    between atoms: _50  and  _51
REMARK   23  A    between atoms: _54  and  _56
REMARK   24  A    between atoms: _56  and  _57
REMARK   25  A    between atoms: _59  and  _61
REMARK   26  A    between atoms: _61  and  _62
REMARK   27  A    between atoms: _65  and  _67
REMARK   28  A    between atoms: _67  and  _68
REMARK   29  A    between atoms: _67  and  _70
REMARK   30  A    between atoms: _70  and  _71
REMARK   31  A    between atoms: _74  and  _76
REMARK   32  A    between atoms: _76  and  _77
REMARK   33  A    between atoms: _76  and  _79
REMARK   34  A    between atoms: _79  and  _80
REMARK   35  A    between atoms: _83  and  _85
REMARK   36  A    between atoms: _85  and  _86
REMARK   37  A    between atoms: _85  and  _88
REMARK   38  A    between atoms: _88  and  _89
REMARK   39  A    between atoms: _92  and  _94
REMARK   40  A    between atoms: _94  and  _95
REMARK   41  A    between atoms: _94  and  _97
REMARK   42  A    between atoms: _100  and  _102
REMARK   43  A    between atoms: _102  and  _103
REMARK   44  A    between atoms: _102  and  _105
REMARK   45  A    between atoms: _106  and  _107
REMARK   46  A    between atoms: _107  and  _108
REMARK   47  A    between atoms: _108  and  _109
REMARK   48  A    between atoms: _113  and  _115
REMARK   49  A    between atoms: _115  and  _116
REMARK   50  A    between atoms: _115  and  _118
REMARK   51  A    between atoms: _118  and  _119
REMARK   52  A    between atoms: _119  and  _120
REMARK   53  A    between atoms: _122  and  _124
REMARK   54  A    between atoms: _124  and  _125
REMARK   55  A    between atoms: _124  and  _127
REMARK   56  A    between atoms: _127  and  _128
REMARK   57  A    between atoms: _131  and  _133
REMARK   58  A    between atoms: _133  and  _134
REMARK   59  A    between atoms: _136  and  _138
REMARK   60  A    between atoms: _138  and  _139
REMARK   61  A    between atoms: _141  and  _143
REMARK   62  A    between atoms: _143  and  _144
REMARK   63  A    between atoms: _143  and  _146
REMARK   64  A    between atoms: _146  and  _147
REMARK   65  A    between atoms: _150  and  _152
REMARK   66  A    between atoms: _152  and  _153
REMARK   67  A    between atoms: _155  and  _157
REMARK   68  A    between atoms: _157  and  _158
REMARK   69  A    between atoms: _160  and  _162
REMARK   70  A    between atoms: _162  and  _163
REMARK   71  A    between atoms: _162  and  _165
REMARK   72  A    between atoms: _165  and  _166
REMARK   73  A    between atoms: _172  and  _174
REMARK   74  A    between atoms: _174  and  _175
REMARK   75  A    between atoms: _174  and  _177
REMARK   76  A    between atoms: _177  and  _178
REMARK   77  A    between atoms: _178  and  _179
REMARK   78  A    between atoms: _181  and  _183
REMARK   79  A    between atoms: _183  and  _184
REMARK   80  A    between atoms: _183  and  _186
REMARK   81  A    between atoms: _189  and  _191
REMARK   82  A    between atoms: _191  and  _192
REMARK   83  A    between atoms: _191  and  _194
REMARK   84  A    between atoms: _194  and  _195
REMARK   85  A    between atoms: _199  and  _200
REMARK   86  A    between atoms: _205  and  _207
REMARK   87  A    between atoms: _207  and  _208
REMARK   88  A    between atoms: _207  and  _210
REMARK   89  A    between atoms: _210  and  _211
REMARK   90  A    between atoms: _215  and  _216
REMARK   91  A    between atoms: _221  and  _223
REMARK   92  A    between atoms: _223  and  _224
REMARK   93  A    between atoms: _223  and  _226
REMARK   94  A    between atoms: _229  and  _231
REMARK   95  A    between atoms: _231  and  _232
REMARK   96  A    between atoms: _231  and  _234
REMARK   97  A    between atoms: _234  and  _235
REMARK   98  A    between atoms: _240  and  _242
REMARK   99  A    between atoms: _242  and  _243
REMARK  100  A    between atoms: _242  and  _245
REMARK  101  A    between atoms: _245  and  _246
REMARK  102  A    between atoms: _249  and  _251
REMARK  103  A    between atoms: _251  and  _252
REMARK  104  A    between atoms: _251  and  _254
REMARK  105  A    between atoms: _254  and  _255
REMARK  106  A    between atoms: _258  and  _260
REMARK  107  A    between atoms: _260  and  _261
REMARK  108  A    between atoms: _263  and  _265
REMARK  109  A    between atoms: _265  and  _266
REMARK  110  A    between atoms: _265  and  _268
REMARK  111  A    between atoms: _268  and  _269
REMARK  112  A    between atoms: _269  and  _270
REMARK  113  A    between atoms: _270  and  _271
REMARK  114  A    between atoms: _280  and  _282
REMARK  115  A    between atoms: _282  and  _283
REMARK  116  A    between atoms: _282  and  _285
REMARK  117  A    between atoms: _285  and  _286
REMARK  118  A    between atoms: _291  and  _293
REMARK  119  A    between atoms: _293  and  _294
REMARK  120  A    between atoms: _293  and  _296
REMARK  121  A    between atoms: _296  and  _297
REMARK  122  A    between atoms: _297  and  _298
REMARK  123  A    between atoms: _298  and  _299
REMARK  124  A    between atoms: _308  and  _310
REMARK  125  A    between atoms: _310  and  _311
REMARK  126  A    between atoms: _310  and  _313
REMARK  127  A    between atoms: _313  and  _314
REMARK  128  A    between atoms: _317  and  _319
REMARK  129  A    between atoms: _319  and  _320
REMARK  130  A    between atoms: _319  and  _322
REMARK  131  A    between atoms: _322  and  _323
REMARK  132  A    between atoms: _326  and  _328
REMARK  133  A    between atoms: _328  and  _329
REMARK  134  A    between atoms: _328  and  _331
REMARK  135  A    between atoms: _331  and  _332
REMARK  136  A    between atoms: _335  and  _337
REMARK  137  A    between atoms: _337  and  _338
REMARK  138  A    between atoms: _337  and  _340
REMARK  139  A    between atoms: _340  and  _341
REMARK  140  A    between atoms: _344  and  _346
REMARK  141  A    between atoms: _346  and  _347
REMARK  142  A    between atoms: _349  and  _351
REMARK  143  A    between atoms: _351  and  _352
REMARK  144  A    between atoms: _355  and  _357
REMARK  145  A    between atoms: _357  and  _358
REMARK  146  A    between atoms: _357  and  _360
REMARK  147  A    between atoms: _360  and  _361
REMARK  148  A    between atoms: _364  and  _366
REMARK  149  A    between atoms: _366  and  _367
REMARK  150  A    between atoms: _366  and  _369
REMARK  151  A    between atoms: _369  and  _370
REMARK  152  A    between atoms: _373  and  _375
REMARK  153  A    between atoms: _375  and  _376
REMARK  154  A    between atoms: _375  and  _378
REMARK  155  A    between atoms: _378  and  _379
REMARK  156  A    between atoms: _382  and  _384
REMARK  157  A    between atoms: _384  and  _385
REMARK  158  A    between atoms: _384  and  _387
REMARK  159  A    between atoms: _390  and  _392
REMARK  160  A    between atoms: _392  and  _393
REMARK  161  A    between atoms: _392  and  _395
REMARK  162  A    between atoms: _395  and  _396
REMARK  163  A    between atoms: _399  and  _401
REMARK  164  A    between atoms: _401  and  _402
REMARK  165  A    between atoms: _401  and  _404
REMARK  166  A    between atoms: _404  and  _405
REMARK  167  A    between atoms: _405  and  _406
REMARK  168  A    between atoms: _406  and  _407
REMARK  169  A    between atoms: _407  and  _408
REMARK  170  A    between atoms: _412  and  _414
REMARK  171  A    between atoms: _414  and  _415
REMARK  172  A    between atoms: _414  and  _417
REMARK  173  A    between atoms: _417  and  _418
REMARK  174  A    between atoms: _418  and  _419
REMARK  175  A    between atoms: _421  and  _423
REMARK  176  A    between atoms: _423  and  _424
REMARK  177  A    between atoms: _423  and  _426
REMARK  178  A    between atoms: _426  and  _427
REMARK  179  A    between atoms: _430  and  _432
REMARK  180  A    between atoms: _432  and  _433
REMARK  181  A    between atoms: _435  and  _437
REMARK  182  A    between atoms: _437  and  _438
REMARK  183  A    between atoms: _440  and  _442
REMARK  184  A    between atoms: _442  and  _443
REMARK  185  A    between atoms: _442  and  _445
REMARK  186  A    between atoms: _445  and  _446
REMARK  187  A    between atoms: _449  and  _451
REMARK  188  A    between atoms: _451  and  _452
REMARK  189  A    between atoms: _454  and  _456
REMARK  190  A    between atoms: _456  and  _457
REMARK  191  A    between atoms: _459  and  _461
REMARK  192  A    between atoms: _461  and  _462
REMARK  193  A    between atoms: _461  and  _464
REMARK  194  A    between atoms: _464  and  _465
REMARK  195  A    between atoms: _471  and  _473
REMARK  196  A    between atoms: _473  and  _474
REMARK  197  A    between atoms: _473  and  _476
REMARK  198  A    between atoms: _476  and  _477
REMARK  199  A    between atoms: _477  and  _478
REMARK  200  A    between atoms: _480  and  _482
REMARK  201  A    between atoms: _482  and  _483
REMARK  202  A    between atoms: _482  and  _485
REMARK  203  A    between atoms: _488  and  _490
REMARK  204  A    between atoms: _490  and  _491
REMARK  205  A    between atoms: _490  and  _493
REMARK  206  A    between atoms: _493  and  _494
REMARK  207  A    between atoms: _497  and  _499
REMARK  208  A    between atoms: _499  and  _500
REMARK  209  A    between atoms: _499  and  _502
REMARK  210  A    between atoms: _502  and  _503
REMARK  211  A    between atoms: _507  and  _508
REMARK  212  A    between atoms: _513  and  _515
REMARK  213  A    between atoms: _515  and  _516
REMARK  214  A    between atoms: _515  and  _518
REMARK  215  A    between atoms: _521  and  _523
REMARK  216  A    between atoms: _523  and  _524
REMARK  217  A    between atoms: _523  and  _526
REMARK  218  A    between atoms: _526  and  _527
REMARK  219  A    between atoms: _532  and  _534
REMARK  220  A    between atoms: _534  and  _535
REMARK  221  A    between atoms: _534  and  _537
REMARK  222  A    between atoms: _537  and  _538
REMARK  223  A    between atoms: _541  and  _543
REMARK  224  A    between atoms: _543  and  _544
REMARK  225  A    between atoms: _543  and  _546
REMARK  226  A    between atoms: _546  and  _547
REMARK  227  A    between atoms: _550  and  _552
REMARK  228  A    between atoms: _552  and  _553
REMARK  229  A    between atoms: _555  and  _557
REMARK  230  A    between atoms: _557  and  _558
REMARK  231  A    between atoms: _557  and  _560
REMARK  232  A    between atoms: _560  and  _561
REMARK  233  A    between atoms: _561  and  _562
REMARK  234  A    between atoms: _562  and  _563
REMARK  235  A    between atoms: _572  and  _574
REMARK  236  A    between atoms: _574  and  _575
REMARK  237  A    between atoms: _574  and  _577
REMARK  238  A    between atoms: _577  and  _578
REMARK                            x       y       z     vdW  Elec       q    Type
REMARK                         _______ _______ _______ _____ _____    ______ ____
ROOT
ATOM      1  O   HOH     1      -4.753 -24.169 -16.092  0.00  0.00    +0.000 OA
ENDROOT
TORSDOF 0
REMARK  Name = ../refined-set-2016/3nu6/3nu6_pocket.pdb
REMARK  238 active torsions:
REMARK  status: ('A' for Active; 'I' for Inactive)
REMARK    1  A    between atoms: _1  and  _3
REMARK    2  A    between atoms: _3  and  _4
REMARK    3  A    between atoms: _3  and  _6
REMARK    4  A    between atoms: _6  and  _7
REMARK    5  A    between atoms: _7  and  _8
REMARK    6  A    between atoms: _8  and  _9
REMARK    7  A    between atoms: _18  and  _20
REMARK    8  A    between atoms: _20  and  _21
REMARK    9  A    between atoms: _20  and  _23
REMARK   10  A    between atoms: _23  and  _24
REMARK   11  A    between atoms: _27  and  _29
REMARK   12  A    between atoms: _29  and  _30
REMARK   13  A    between atoms: _29  and  _32
REMARK   14  A    between atoms: _32  and  _33
REMARK   15  A    between atoms: _36  and  _38
REMARK   16  A    between atoms: _38  and  _39
REMARK   17  A    between atoms: _38  and  _41
REMARK   18  A    between atoms: _41  and  _42
REMARK   19  A    between atoms: _45  and  _47
REMARK   20  A    between atoms: _47  and  _48
REMARK   21  A    between atoms: _47  and  _50
REMARK   22  A    between atoms: _50  and  _51
REMARK   23  A    between atoms: _54  and  _56
REMARK   24  A    between atoms: _56  and  _57
REMARK   25  A    between atoms: _59  and  _61
REMARK   26  A    between atoms: _61  and  _62
REMARK   27  A    between atoms: _65  and  _67
REMARK   28  A    between atoms: _67  and  _68
REMARK   29  A    between atoms: _67  and  _70
REMARK   30  A    between atoms: _70  and  _71
REMARK   31  A    between atoms: _74  and  _76
REMARK   32  A    between atoms: _76  and  _77
REMARK   33  A    between atoms: _76  and  _79
REMARK   34  A    between atoms: _79  and  _80
REMARK   35  A    between atoms: _83  and  _85
REMARK   36  A    between atoms: _85  and  _86
REMARK   37  A    between atoms: _85  and  _88
REMARK   38  A    between atoms: _88  and  _89
REMARK   39  A    between atoms: _92  and  _94
REMARK   40  A    between atoms: _94  and  _95
REMARK   41  A    between atoms: _94  and  _97
REMARK   42  A    between atoms: _100  and  _102
REMARK   43  A    between atoms: _102  and  _103
REMARK   44  A    between atoms: _102  and  _105
REMARK   45  A    between atoms: _106  and  _107
REMARK   46  A    between atoms: _107  and  _108
REMARK   47  A    between atoms: _108  and  _109
REMARK   48  A    between atoms: _113  and  _115
REMARK   49  A    between atoms: _115  and  _116
REMARK   50  A    between atoms: _115  and  _118
REMARK   51  A    between atoms: _118  and  _119
REMARK   52  A    between atoms: _119  and  _120
REMARK   53  A    between atoms: _122  and  _124
REMARK   54  A    between atoms: _124  and  _125
REMARK   55  A    between atoms: _124  and  _127
REMARK   56  A    between atoms: _127  and  _128
REMARK   57  A    between atoms: _131  and  _133
REMARK   58  A    between atoms: _133  and  _134
REMARK   59  A    between atoms: _136  and  _138
REMARK   60  A    between atoms: _138  and  _139
REMARK   61  A    between atoms: _141  and  _143
REMARK   62  A    between atoms: _143  and  _144
REMARK   63  A    between atoms: _143  and  _146
REMARK   64  A    between atoms: _146  and  _147
REMARK   65  A    between atoms: _150  and  _152
REMARK   66  A    between atoms: _152  and  _153
REMARK   67  A    between atoms: _155  and  _157
REMARK   68  A    between atoms: _157  and  _158
REMARK   69  A    between atoms: _160  and  _162
REMARK   70  A    between atoms: _162  and  _163
REMARK   71  A    between atoms: _162  and  _165
REMARK   72  A    between atoms: _165  and  _166
REMARK   73  A    between atoms: _172  and  _174
REMARK   74  A    between atoms: _174  and  _175
REMARK   75  A    between atoms: _174  and  _177
REMARK   76  A    between atoms: _177  and  _178
REMARK   77  A    between atoms: _178  and  _179
REMARK   78  A    between atoms: _181  and  _183
REMARK   79  A    between atoms: _183  and  _184
REMARK   80  A    between atoms: _183  and  _186
REMARK   81  A    between atoms: _189  and  _191
REMARK   82  A    between atoms: _191  and  _192
REMARK   83  A    between atoms: _191  and  _194
REMARK   84  A    between atoms: _194  and  _195
REMARK   85  A    between atoms: _199  and  _200
REMARK   86  A    between atoms: _205  and  _207
REMARK   87  A    between atoms: _207  and  _208
REMARK   88  A    between atoms: _207  and  _210
REMARK   89  A    between atoms: _210  and  _211
REMARK   90  A    between atoms: _215  and  _216
REMARK   91  A    between atoms: _221  and  _223
REMARK   92  A    between atoms: _223  and  _224
REMARK   93  A    between atoms: _223  and  _226
REMARK   94  A    between atoms: _229  and  _231
REMARK   95  A    between atoms: _231  and  _232
REMARK   96  A    between atoms: _231  and  _234
REMARK   97  A    between atoms: _234  and  _235
REMARK   98  A    between atoms: _240  and  _242
REMARK   99  A    between atoms: _242  and  _243
REMARK  100  A    between atoms: _242  and  _245
REMARK  101  A    between atoms: _245  and  _246
REMARK  102  A    between atoms: _249  and  _251
REMARK  103  A    between atoms: _251  and  _252
REMARK  104  A    between atoms: _251  and  _254
REMARK  105  A    between atoms: _254  and  _255
REMARK  106  A    between atoms: _258  and  _260
REMARK  107  A    between atoms: _260  and  _261
REMARK  108  A    between atoms: _263  and  _265
REMARK  109  A    between atoms: _265  and  _266
REMARK  110  A    between atoms: _265  and  _268
REMARK  111  A    between atoms: _268  and  _269
REMARK  112  A    between atoms: _269  and  _270
REMARK  113  A    between atoms: _270  and  _271
REMARK  114  A    between atoms: _280  and  _282
REMARK  115  A    between atoms: _282  and  _283
REMARK  116  A    between atoms: _282  and  _285
REMARK  117  A    between atoms: _285  and  _286
REMARK  118  A    between atoms: _291  and  _293
REMARK  119  A    between atoms: _293  and  _294
REMARK  120  A    between atoms: _293  and  _296
REMARK  121  A    between atoms: _296  and  _297
REMARK  122  A    between atoms: _297  and  _298
REMARK  123  A    between atoms: _298  and  _299
REMARK  124  A    between atoms: _308  and  _310
REMARK  125  A    between atoms: _310  and  _311
REMARK  126  A    between atoms: _310  and  _313
REMARK  127  A    between atoms: _313  and  _314
REMARK  128  A    between atoms: _317  and  _319
REMARK  129  A    between atoms: _319  and  _320
REMARK  130  A    between atoms: _319  and  _322
REMARK  131  A    between atoms: _322  and  _323
REMARK  132  A    between atoms: _326  and  _328
REMARK  133  A    between atoms: _328  and  _329
REMARK  134  A    between atoms: _328  and  _331
REMARK  135  A    between atoms: _331  and  _332
REMARK  136  A    between atoms: _335  and  _337
REMARK  137  A    between atoms: _337  and  _338
REMARK  138  A    between atoms: _337  and  _340
REMARK  139  A    between atoms: _340  and  _341
REMARK  140  A    between atoms: _344  and  _346
REMARK  141  A    between atoms: _346  and  _347
REMARK  142  A    between atoms: _349  and  _351
REMARK  143  A    between atoms: _351  and  _352
REMARK  144  A    between atoms: _355  and  _357
REMARK  145  A    between atoms: _357  and  _358
REMARK  146  A    between atoms: _357  and  _360
REMARK  147  A    between atoms: _360  and  _361
REMARK  148  A    between atoms: _364  and  _366
REMARK  149  A    between atoms: _366  and  _367
REMARK  150  A    between atoms: _366  and  _369
REMARK  151  A    between atoms: _369  and  _370
REMARK  152  A    between atoms: _373  and  _375
REMARK  153  A    between atoms: _375  and  _376
REMARK  154  A    between atoms: _375  and  _378
REMARK  155  A    between atoms: _378  and  _379
REMARK  156  A    between atoms: _382  and  _384
REMARK  157  A    between atoms: _384  and  _385
REMARK  158  A    between atoms: _384  and  _387
REMARK  159  A    between atoms: _390  and  _392
REMARK  160  A    between atoms: _392  and  _393
REMARK  161  A    between atoms: _392  and  _395
REMARK  162  A    between atoms: _395  and  _396
REMARK  163  A    between atoms: _399  and  _401
REMARK  164  A    between atoms: _401  and  _402
REMARK  165  A    between atoms: _401  and  _404
REMARK  166  A    between atoms: _404  and  _405
REMARK  167  A    between atoms: _405  and  _406
REMARK  168  A    between atoms: _406  and  _407
REMARK  169  A    between atoms: _407  and  _408
REMARK  170  A    between atoms: _412  and  _414
REMARK  171  A    between atoms: _414  and  _415
REMARK  172  A    between atoms: _414  and  _417
REMARK  173  A    between atoms: _417  and  _418
REMARK  174  A    between atoms: _418  and  _419
REMARK  175  A    between atoms: _421  and  _423
REMARK  176  A    between atoms: _423  and  _424
REMARK  177  A    between atoms: _423  and  _426
REMARK  178  A    between atoms: _426  and  _427
REMARK  179  A    between atoms: _430  and  _432
REMARK  180  A    between atoms: _432  and  _433
REMARK  181  A    between atoms: _435  and  _437
REMARK  182  A    between atoms: _437  and  _438
REMARK  183  A    between atoms: _440  and  _442
REMARK  184  A    between atoms: _442  and  _443
REMARK  185  A    between atoms: _442  and  _445
REMARK  186  A    between atoms: _445  and  _446
REMARK  187  A    between atoms: _449  and  _451
REMARK  188  A    between atoms: _451  and  _452
REMARK  189  A    between atoms: _454  and  _456
REMARK  190  A    between atoms: _456  and  _457
REMARK  191  A    between atoms: _459  and  _461
REMARK  192  A    between atoms: _461  and  _462
REMARK  193  A    between atoms: _461  and  _464
REMARK  194  A    between atoms: _464  and  _465
REMARK  195  A    between atoms: _471  and  _473
REMARK  196  A    between atoms: _473  and  _474
REMARK  197  A    between atoms: _473  and  _476
REMARK  198  A    between atoms: _476  and  _477
REMARK  199  A    between atoms: _477  and  _478
REMARK  200  A    between atoms: _480  and  _482
REMARK  201  A    between atoms: _482  and  _483
REMARK  202  A    between atoms: _482  and  _485
REMARK  203  A    between atoms: _488  and  _490
REMARK  204  A    between atoms: _490  and  _491
REMARK  205  A    between atoms: _490  and  _493
REMARK  206  A    between atoms: _493  and  _494
REMARK  207  A    between atoms: _497  and  _499
REMARK  208  A    between atoms: _499  and  _500
REMARK  209  A    between atoms: _499  and  _502
REMARK  210  A    between atoms: _502  and  _503
REMARK  211  A    between atoms: _507  and  _508
REMARK  212  A    between atoms: _513  and  _515
REMARK  213  A    between atoms: _515  and  _516
REMARK  214  A    between atoms: _515  and  _518
REMARK  215  A    between atoms: _521  and  _523
REMARK  216  A    between atoms: _523  and  _524
REMARK  217  A    between atoms: _523  and  _526
REMARK  218  A    between atoms: _526  and  _527
REMARK  219  A    between atoms: _532  and  _534
REMARK  220  A    between atoms: _534  and  _535
REMARK  221  A    between atoms: _534  and  _537
REMARK  222  A    between atoms: _537  and  _538
REMARK  223  A    between atoms: _541  and  _543
REMARK  224  A    between atoms: _543  and  _544
REMARK  225  A    between atoms: _543  and  _546
REMARK  226  A    between atoms: _546  and  _547
REMARK  227  A    between atoms: _550  and  _552
REMARK  228  A    between atoms: _552  and  _553
REMARK  229  A    between atoms: _555  and  _557
REMARK  230  A    between atoms: _557  and  _558
REMARK  231  A    between atoms: _557  and  _560
REMARK  232  A    between atoms: _560  and  _561
REMARK  233  A    between atoms: _561  and  _562
REMARK  234  A    between atoms: _562  and  _563
REMARK  235  A    between atoms: _572  and  _574
REMARK  236  A    between atoms: _574  and  _575
REMARK  237  A    between atoms: _574  and  _577
REMARK  238  A    between atoms: _577  and  _578
REMARK                            x       y       z     vdW  Elec       q    Type
REMARK                         _______ _______ _______ _____ _____    ______ ____
ROOT
ATOM      1  O   HOH     1     -11.000 -29.875 -14.432  0.00  0.00    +0.000 OA
ENDROOT
TORSDOF 0
