REMARK  Name = ../refined-set-2016/3ivc/3ivc_pocket.pdb
REMARK  212 active torsions:
REMARK  status: ('A' for Active; 'I' for Inactive)
REMARK    1  A    between atoms: _1  and  _3
REMARK    2  A    between atoms: _3  and  _4
REMARK    3  A    between atoms: _3  and  _6
REMARK    4  A    between atoms: _10  and  _11
REMARK    5  A    between atoms: _16  and  _18
REMARK    6  A    between atoms: _18  and  _19
REMARK    7  A    between atoms: _18  and  _21
REMARK    8  A    between atoms: _21  and  _22
REMARK    9  A    between atoms: _25  and  _27
REMARK   10  A    between atoms: _27  and  _28
REMARK   11  A    between atoms: _27  and  _30
REMARK   12  A    between atoms: _30  and  _31
REMARK   13  A    between atoms: _31  and  _32
REMARK   14  A    between atoms: _34  and  _36
REMARK   15  A    between atoms: _36  and  _37
REMARK   16  A    between atoms: _39  and  _41
REMARK   17  A    between atoms: _41  and  _42
REMARK   18  A    between atoms: _45  and  _47
REMARK   19  A    between atoms: _47  and  _48
REMARK   20  A    between atoms: _47  and  _50
REMARK   21  A    between atoms: _50  and  _51
REMARK   22  A    between atoms: _54  and  _56
REMARK   23  A    between atoms: _56  and  _57
REMARK   24  A    between atoms: _56  and  _59
REMARK   25  A    between atoms: _59  and  _60
REMARK   26  A    between atoms: _65  and  _67
REMARK   27  A    between atoms: _67  and  _68
REMARK   28  A    between atoms: _67  and  _70
REMARK   29  A    between atoms: _70  and  _71
REMARK   30  A    between atoms: _71  and  _72
REMARK   31  A    between atoms: _75  and  _77
REMARK   32  A    between atoms: _77  and  _78
REMARK   33  A    between atoms: _80  and  _82
REMARK   34  A    between atoms: _82  and  _83
REMARK   35  A    between atoms: _82  and  _85
REMARK   36  A    between atoms: _85  and  _86
REMARK   37  A    between atoms: _91  and  _93
REMARK   38  A    between atoms: _93  and  _94
REMARK   39  A    between atoms: _93  and  _96
REMARK   40  A    between atoms: _96  and  _97
REMARK   41  A    between atoms: _100  and  _102
REMARK   42  A    between atoms: _102  and  _103
REMARK   43  A    between atoms: _106  and  _108
REMARK   44  A    between atoms: _108  and  _109
REMARK   45  A    between atoms: _108  and  _111
REMARK   46  A    between atoms: _111  and  _112
REMARK   47  A    between atoms: _115  and  _117
REMARK   48  A    between atoms: _117  and  _118
REMARK   49  A    between atoms: _117  and  _120
REMARK   50  A    between atoms: _123  and  _125
REMARK   51  A    between atoms: _125  and  _126
REMARK   52  A    between atoms: _125  and  _128
REMARK   53  A    between atoms: _128  and  _129
REMARK   54  A    between atoms: _131  and  _133
REMARK   55  A    between atoms: _133  and  _134
REMARK   56  A    between atoms: _133  and  _136
REMARK   57  A    between atoms: _136  and  _137
REMARK   58  A    between atoms: _140  and  _142
REMARK   59  A    between atoms: _142  and  _143
REMARK   60  A    between atoms: _142  and  _145
REMARK   61  A    between atoms: _145  and  _146
REMARK   62  A    between atoms: _152  and  _154
REMARK   63  A    between atoms: _154  and  _155
REMARK   64  A    between atoms: _154  and  _157
REMARK   65  A    between atoms: _157  and  _158
REMARK   66  A    between atoms: _163  and  _165
REMARK   67  A    between atoms: _165  and  _166
REMARK   68  A    between atoms: _165  and  _168
REMARK   69  A    between atoms: _168  and  _169
REMARK   70  A    between atoms: _169  and  _170
REMARK   71  A    between atoms: _175  and  _177
REMARK   72  A    between atoms: _177  and  _178
REMARK   73  A    between atoms: _177  and  _180
REMARK   74  A    between atoms: _180  and  _181
REMARK   75  A    between atoms: _186  and  _187
REMARK   76  A    between atoms: _189  and  _191
REMARK   77  A    between atoms: _191  and  _192
REMARK   78  A    between atoms: _191  and  _194
REMARK   79  A    between atoms: _194  and  _195
REMARK   80  A    between atoms: _200  and  _202
REMARK   81  A    between atoms: _202  and  _203
REMARK   82  A    between atoms: _202  and  _205
REMARK   83  A    between atoms: _205  and  _206
REMARK   84  A    between atoms: _212  and  _214
REMARK   85  A    between atoms: _214  and  _215
REMARK   86  A    between atoms: _217  and  _219
REMARK   87  A    between atoms: _219  and  _220
REMARK   88  A    between atoms: _219  and  _222
REMARK   89  A    between atoms: _225  and  _227
REMARK   90  A    between atoms: _227  and  _228
REMARK   91  A    between atoms: _227  and  _230
REMARK   92  A    between atoms: _230  and  _231
REMARK   93  A    between atoms: _234  and  _236
REMARK   94  A    between atoms: _236  and  _237
REMARK   95  A    between atoms: _236  and  _239
REMARK   96  A    between atoms: _242  and  _244
REMARK   97  A    between atoms: _244  and  _245
REMARK   98  A    between atoms: _244  and  _247
REMARK   99  A    between atoms: _250  and  _252
REMARK  100  A    between atoms: _252  and  _253
REMARK  101  A    between atoms: _252  and  _255
REMARK  102  A    between atoms: _255  and  _256
REMARK  103  A    between atoms: _259  and  _261
REMARK  104  A    between atoms: _261  and  _262
REMARK  105  A    between atoms: _261  and  _264
REMARK  106  A    between atoms: _264  and  _265
REMARK  107  A    between atoms: _268  and  _270
REMARK  108  A    between atoms: _270  and  _271
REMARK  109  A    between atoms: _270  and  _273
REMARK  110  A    between atoms: _276  and  _278
REMARK  111  A    between atoms: _278  and  _279
REMARK  112  A    between atoms: _278  and  _281
REMARK  113  A    between atoms: _281  and  _282
REMARK  114  A    between atoms: _288  and  _290
REMARK  115  A    between atoms: _290  and  _291
REMARK  116  A    between atoms: _290  and  _293
REMARK  117  A    between atoms: _293  and  _294
REMARK  118  A    between atoms: _300  and  _302
REMARK  119  A    between atoms: _302  and  _303
REMARK  120  A    between atoms: _305  and  _307
REMARK  121  A    between atoms: _307  and  _308
REMARK  122  A    between atoms: _307  and  _310
REMARK  123  A    between atoms: _310  and  _311
REMARK  124  A    between atoms: _311  and  _312
REMARK  125  A    between atoms: _315  and  _317
REMARK  126  A    between atoms: _317  and  _318
REMARK  127  A    between atoms: _317  and  _320
REMARK  128  A    between atoms: _320  and  _321
REMARK  129  A    between atoms: _321  and  _322
REMARK  130  A    between atoms: _322  and  _323
REMARK  131  A    between atoms: _323  and  _324
REMARK  132  A    between atoms: _328  and  _330
REMARK  133  A    between atoms: _330  and  _331
REMARK  134  A    between atoms: _330  and  _333
REMARK  135  A    between atoms: _333  and  _334
REMARK  136  A    between atoms: _337  and  _339
REMARK  137  A    between atoms: _339  and  _340
REMARK  138  A    between atoms: _339  and  _342
REMARK  139  A    between atoms: _342  and  _343
REMARK  140  A    between atoms: _343  and  _344
REMARK  141  A    between atoms: _349  and  _351
REMARK  142  A    between atoms: _351  and  _352
REMARK  143  A    between atoms: _351  and  _354
REMARK  144  A    between atoms: _354  and  _355
REMARK  145  A    between atoms: _358  and  _360
REMARK  146  A    between atoms: _360  and  _361
REMARK  147  A    between atoms: _363  and  _365
REMARK  148  A    between atoms: _365  and  _366
REMARK  149  A    between atoms: _365  and  _368
REMARK  150  A    between atoms: _372  and  _373
REMARK  151  A    between atoms: _378  and  _380
REMARK  152  A    between atoms: _380  and  _381
REMARK  153  A    between atoms: _380  and  _383
REMARK  154  A    between atoms: _383  and  _384
REMARK  155  A    between atoms: _387  and  _389
REMARK  156  A    between atoms: _389  and  _390
REMARK  157  A    between atoms: _389  and  _392
REMARK  158  A    between atoms: _395  and  _397
REMARK  159  A    between atoms: _397  and  _398
REMARK  160  A    between atoms: _397  and  _400
REMARK  161  A    between atoms: _400  and  _401
REMARK  162  A    between atoms: _401  and  _402
REMARK  163  A    between atoms: _402  and  _403
REMARK  164  A    between atoms: _412  and  _414
REMARK  165  A    between atoms: _414  and  _415
REMARK  166  A    between atoms: _414  and  _417
REMARK  167  A    between atoms: _417  and  _418
REMARK  168  A    between atoms: _421  and  _423
REMARK  169  A    between atoms: _423  and  _424
REMARK  170  A    between atoms: _427  and  _429
REMARK  171  A    between atoms: _429  and  _430
REMARK  172  A    between atoms: _429  and  _432
REMARK  173  A    between atoms: _432  and  _433
REMARK  174  A    between atoms: _433  and  _434
REMARK  175  A    between atoms: _436  and  _438
REMARK  176  A    between atoms: _438  and  _439
REMARK  177  A    between atoms: _438  and  _441
REMARK  178  A    between atoms: _441  and  _442
REMARK  179  A    between atoms: _444  and  _446
REMARK  180  A    between atoms: _446  and  _447
REMARK  181  A    between atoms: _446  and  _449
REMARK  182  A    between atoms: _449  and  _450
REMARK  183  A    between atoms: _452  and  _454
REMARK  184  A    between atoms: _454  and  _455
REMARK  185  A    between atoms: _454  and  _457
REMARK  186  A    between atoms: _457  and  _458
REMARK  187  A    between atoms: _458  and  _459
REMARK  188  A    between atoms: _459  and  _460
REMARK  189  A    between atoms: _469  and  _471
REMARK  190  A    between atoms: _471  and  _472
REMARK  191  A    between atoms: _471  and  _474
REMARK  192  A    between atoms: _474  and  _475
REMARK  193  A    between atoms: _480  and  _482
REMARK  194  A    between atoms: _482  and  _483
REMARK  195  A    between atoms: _482  and  _485
REMARK  196  A    between atoms: _485  and  _486
REMARK  197  A    between atoms: _486  and  _487
REMARK  198  A    between atoms: _487  and  _488
REMARK  199  A    between atoms: _497  and  _499
REMARK  200  A    between atoms: _499  and  _500
REMARK  201  A    between atoms: _499  and  _502
REMARK  202  A    between atoms: _502  and  _503
REMARK  203  A    between atoms: _503  and  _504
REMARK  204  A    between atoms: _504  and  _505
REMARK  205  A    between atoms: _514  and  _516
REMARK  206  A    between atoms: _516  and  _517
REMARK  207  A    between atoms: _516  and  _519
REMARK  208  A    between atoms: _519  and  _520
REMARK  209  A    between atoms: _523  and  _525
REMARK  210  A    between atoms: _525  and  _526
REMARK  211  A    between atoms: _525  and  _528
REMARK  212  A    between atoms: _528  and  _529
REMARK                            x       y       z     vdW  Elec       q    Type
REMARK                         _______ _______ _______ _____ _____    ______ ____
ROOT
ATOM      1  CA  HIS A   8      13.944  17.821  -3.963  0.00  0.00    +0.155 C 
ENDROOT
BRANCH   1   4
ATOM      2  C   LEU A   7      13.977  18.852  -1.763  0.00  0.00    +0.241 C 
ATOM      3  O   LEU A   7      14.388  19.952  -2.224  0.00  0.00    -0.273 OA
ATOM      4  N   HIS A   8      13.789  17.764  -2.500  0.00  0.00    -0.297 N 
ATOM      5  H   HIS A   8      13.531  16.867  -2.042  0.00  0.00    +0.150 HD
BRANCH   2   6
ATOM      6  CA  LEU A   7      13.704  18.673  -0.285  0.00  0.00    +0.149 C 
BRANCH   6   8
ATOM      7  C   ALA A   6      15.883  18.931   0.709  0.00  0.00    +0.241 C 
ATOM      8  N   LEU A   7      14.658  19.416   0.531  0.00  0.00    -0.297 N 
ATOM      9  H   LEU A   7      14.382  20.318   0.970  0.00  0.00    +0.150 HD
ATOM     10  O   ALA A   6      16.348  18.042  -0.002  0.00  0.00    -0.273 OA
BRANCH   7  11
ATOM     11  CA  ALA A   6      16.692  19.575   1.807  0.00  0.00    +0.149 C 
ATOM     12  CB  ALA A   6      18.161  19.077   1.802  0.00  0.00    +0.031 C 
BRANCH  11  14
ATOM     13  C   GLY A   5      15.533  18.165   3.485  0.00  0.00    +0.243 C 
ATOM     14  N   ALA A   6      16.058  19.335   3.107  0.00  0.00    -0.297 N 
ATOM     15  H   ALA A   6      16.014  20.127   3.779  0.00  0.00    +0.150 HD
ATOM     16  O   GLY A   5      15.698  17.090   2.887  0.00  0.00    -0.273 OA
BRANCH  13  17
ATOM     17  CA  GLY A   5      14.721  18.210   4.758  0.00  0.00    +0.176 C 
BRANCH  17  20
ATOM     18  C   MET A   4      15.639  16.380   6.068  0.00  0.00    +0.241 C 
ATOM     19  O   MET A   4      16.690  16.971   6.209  0.00  0.00    -0.273 OA
ATOM     20  N   GLY A   5      14.637  16.873   5.335  0.00  0.00    -0.295 N 
ATOM     21  H   GLY A   5      13.787  16.296   5.174  0.00  0.00    +0.150 HD
BRANCH  18  22
ATOM     22  CA  MET A   4      15.414  14.997   6.716  0.00  0.00    +0.149 C 
BRANCH  22  25
ATOM     23  C   THR A   3      13.207  14.047   6.583  0.00  0.00    +0.243 C 
ATOM     24  O   THR A   3      12.895  14.340   7.766  0.00  0.00    -0.273 OA
ATOM     25  N   MET A   4      14.414  14.237   6.066  0.00  0.00    -0.297 N 
ATOM     26  H   MET A   4      14.634  13.809   5.144  0.00  0.00    +0.150 HD
BRANCH  23  27
ATOM     27  CA  THR A   3      12.186  13.462   5.587  0.00  0.00    +0.176 C 
BRANCH  27  29
ATOM     28  C   PRO A   2      10.464  11.837   5.991  0.00  0.00    +0.241 C 
ATOM     29  N   THR A   3      11.040  12.984   6.314  0.00  0.00    -0.295 N 
ATOM     30  H   THR A   3      10.660  13.546   7.102  0.00  0.00    +0.150 HD
ATOM     31  O   PRO A   2      10.865  11.142   5.075  0.00  0.00    -0.273 OA
BRANCH  28  34
ATOM     32  C   VAL A   1       7.412  12.159   5.292  0.00  0.00    +0.241 C 
ATOM     33  N   PRO A   2       8.091  11.169   5.901  0.00  0.00    -0.272 N 
ATOM     34  CA  PRO A   2       9.238  11.443   6.779  0.00  0.00    +0.152 C 
ATOM     35  CB  PRO A   2       9.474  10.090   7.508  0.00  0.00    +0.031 C 
ATOM     36  CG  PRO A   2       8.252   9.290   7.266  0.00  0.00    +0.024 C 
ATOM     37  CD  PRO A   2       7.716   9.731   5.917  0.00  0.00    +0.094 C 
ATOM     38  O   VAL A   1       7.691  13.341   5.490  0.00  0.00    -0.273 OA
BRANCH  32  39
ATOM     39  CA  VAL A   1       6.202  11.753   4.395  0.00  0.00    +0.145 C 
BRANCH  39  40
ATOM     40  CB  VAL A   1       6.052  12.717   3.197  0.00  0.00    +0.025 C 
ATOM     41  CG2 VAL A   1       4.819  12.338   2.359  0.00  0.00    +0.002 C 
ATOM     42  CG1 VAL A   1       7.342  12.741   2.349  0.00  0.00    +0.002 C 
ENDBRANCH  39  40
BRANCH  39  43
ATOM     43  N   VAL A   1       5.005  11.750   5.169  0.00  0.00    -0.238 NA
ATOM     44  H   VAL A   1       4.693  12.658   5.569  0.00  0.00    +0.142 HD
ENDBRANCH  39  43
ENDBRANCH  32  39
ENDBRANCH  28  34
ENDBRANCH  27  29
BRANCH  27  45
ATOM     45  CB  THR A   3      11.817  14.571   4.521  0.00  0.00    +0.137 C 
ATOM     46  CG2 THR A   3      10.475  14.340   3.868  0.00  0.00    +0.034 C 
BRANCH  45  47
ATOM     47  OG1 THR A   3      11.740  15.803   5.191  0.00  0.00    -0.382 OA
ATOM     48  HG1 THR A   3      11.042  15.753   5.891  0.00  0.00    +0.210 HD
ENDBRANCH  45  47
ENDBRANCH  27  45
ENDBRANCH  23  27
ENDBRANCH  22  25
BRANCH  22  49
ATOM     49  CB  MET A   4      16.659  14.149   6.712  0.00  0.00    +0.041 C 
BRANCH  49  50
ATOM     50  CG  MET A   4      16.435  12.940   7.607  0.00  0.00    +0.060 C 
BRANCH  50  51
ATOM     51  SD  MET A   4      17.944  12.373   8.405  0.00  0.00    -0.139 S 
ATOM     52  CE  MET A   4      18.927  12.041   6.951  0.00  0.00    +0.069 C 
ENDBRANCH  50  51
ENDBRANCH  49  50
ENDBRANCH  22  49
ENDBRANCH  18  22
ENDBRANCH  17  20
ENDBRANCH  13  17
ENDBRANCH  11  14
ENDBRANCH   7  11
ENDBRANCH   6   8
BRANCH   6  53
ATOM     53  CB  LEU A   7      12.258  19.056   0.047  0.00  0.00    +0.029 C 
BRANCH  53  54
ATOM     54  CG  LEU A   7      11.850  19.022   1.516  0.00  0.00    +0.002 C 
ATOM     55  CD2 LEU A   7      12.060  17.641   2.089  0.00  0.00    +0.000 C 
ATOM     56  CD1 LEU A   7      10.389  19.436   1.621  0.00  0.00    +0.000 C 
ENDBRANCH  53  54
ENDBRANCH   6  53
ENDBRANCH   2   6
ENDBRANCH   1   4
BRANCH   1  57
ATOM     57  C   HIS A   8      12.744  17.157  -4.608  0.00  0.00    +0.241 C 
ATOM     58  O   HIS A   8      11.796  16.742  -3.911  0.00  0.00    -0.273 OA
ATOM     59  N   GLU A   9      12.806  16.978  -5.926  0.00  0.00    -0.297 N 
ATOM     60  H   GLU A   9      13.695  17.178  -6.427  0.00  0.00    +0.150 HD
BRANCH  59  61
ATOM     61  CA  GLU A   9      11.661  16.511  -6.673  0.00  0.00    +0.149 C 
BRANCH  61  62
ATOM     62  C   GLU A   9      11.179  15.122  -6.231  0.00  0.00    +0.241 C 
ATOM     63  N   GLY A  10      12.120  14.287  -5.777  0.00  0.00    -0.295 N 
ATOM     64  H   GLY A  10      13.117  14.567  -5.873  0.00  0.00    +0.150 HD
ATOM     65  O   GLU A   9       9.979  14.824  -6.298  0.00  0.00    -0.273 OA
BRANCH  63  66
ATOM     66  CA  GLY A  10      11.820  13.006  -5.155  0.00  0.00    +0.176 C 
BRANCH  66  67
ATOM     67  C   GLY A  10      10.877  13.097  -3.994  0.00  0.00    +0.243 C 
ATOM     68  N   HIS A  11      11.155  14.010  -3.070  0.00  0.00    -0.297 N 
ATOM     69  H   HIS A  11      12.024  14.574  -3.160  0.00  0.00    +0.150 HD
ATOM     70  O   GLY A  10       9.925  12.331  -3.907  0.00  0.00    -0.273 OA
BRANCH  68  71
ATOM     71  CA  HIS A  11      10.254  14.245  -1.910  0.00  0.00    +0.155 C 
BRANCH  71  72
ATOM     72  C   HIS A  11       8.862  14.737  -2.377  0.00  0.00    +0.241 C 
ATOM     73  O   HIS A  11       7.801  14.307  -1.857  0.00  0.00    -0.273 OA
ATOM     74  N   LEU A  12       8.877  15.625  -3.383  0.00  0.00    -0.297 N 
ATOM     75  H   LEU A  12       9.794  15.956  -3.744  0.00  0.00    +0.150 HD
BRANCH  74  76
ATOM     76  CA  LEU A  12       7.653  16.145  -3.992  0.00  0.00    +0.149 C 
BRANCH  76  77
ATOM     77  C   LEU A  12       6.835  15.015  -4.608  0.00  0.00    +0.241 C 
ATOM     78  O   LEU A  12       5.626  14.935  -4.373  0.00  0.00    -0.273 OA
ATOM     79  N   ALA A  13       7.483  14.096  -5.328  0.00  0.00    -0.297 N 
ATOM     80  H   ALA A  13       8.490  14.218  -5.558  0.00  0.00    +0.150 HD
BRANCH  79  81
ATOM     81  CA  ALA A  13       6.750  12.909  -5.790  0.00  0.00    +0.149 C 
ATOM     82  CB  ALA A  13       7.643  11.918  -6.653  0.00  0.00    +0.031 C 
BRANCH  81  83
ATOM     83  C   ALA A  13       6.118  12.168  -4.613  0.00  0.00    +0.241 C 
ATOM     84  N   LEU A  14       6.827  12.070  -3.475  0.00  0.00    -0.297 N 
ATOM     85  H   LEU A  14       7.798  12.440  -3.435  0.00  0.00    +0.150 HD
ATOM     86  O   ALA A  13       4.962  11.754  -4.700  0.00  0.00    -0.273 OA
BRANCH  84  87
ATOM     87  CA  LEU A  14       6.220  11.427  -2.262  0.00  0.00    +0.149 C 
BRANCH  87  88
ATOM     88  C   LEU A  14       4.991  12.163  -1.794  0.00  0.00    +0.241 C 
ATOM     89  O   LEU A  14       3.982  11.538  -1.449  0.00  0.00    -0.273 OA
ATOM     90  N   VAL A  15       5.092  13.491  -1.774  0.00  0.00    -0.298 N 
ATOM     91  H   VAL A  15       5.987  13.918  -2.086  0.00  0.00    +0.150 HD
BRANCH  90  92
ATOM     92  CA  VAL A  15       4.019  14.384  -1.339  0.00  0.00    +0.137 C 
BRANCH  92  93
ATOM     93  CB  VAL A  15       4.535  15.853  -1.274  0.00  0.00    +0.026 C 
ATOM     94  CG2 VAL A  15       5.438  16.091  -0.067  0.00  0.00    +0.002 C 
ATOM     95  CG1 VAL A  15       3.399  16.812  -1.271  0.00  0.00    +0.002 C 
ENDBRANCH  92  93
BRANCH  92  96
ATOM     96  C   VAL A  15       2.807  14.268  -2.307  0.00  0.00    +0.227 C 
ATOM     97  O   VAL A  15       1.637  14.195  -1.891  0.00  0.00    -0.286 OA
ENDBRANCH  92  96
ENDBRANCH  90  92
ENDBRANCH  87  88
BRANCH  87  98
ATOM     98  CB  LEU A  14       7.239  11.291  -1.086  0.00  0.00    +0.029 C 
BRANCH  98  99
ATOM     99  CG  LEU A  14       8.566  10.583  -1.386  0.00  0.00    +0.002 C 
ATOM    100  CD2 LEU A  14       9.547  10.651  -0.179  0.00  0.00    +0.000 C 
ATOM    101  CD1 LEU A  14       8.303   9.110  -1.838  0.00  0.00    +0.000 C 
ENDBRANCH  98  99
ENDBRANCH  87  98
ENDBRANCH  84  87
ENDBRANCH  81  83
ENDBRANCH  79  81
ENDBRANCH  76  77
BRANCH  76 102
ATOM    102  CB  LEU A  12       8.003  17.225  -5.009  0.00  0.00    +0.029 C 
BRANCH 102 103
ATOM    103  CG  LEU A  12       8.790  18.370  -4.357  0.00  0.00    +0.002 C 
ATOM    104  CD2 LEU A  12       8.108  18.861  -3.091  0.00  0.00    +0.000 C 
ATOM    105  CD1 LEU A  12       9.023  19.540  -5.337  0.00  0.00    +0.000 C 
ENDBRANCH 102 103
ENDBRANCH  76 102
ENDBRANCH  74  76
ENDBRANCH  71  72
BRANCH  71 106
ATOM    106  CB  HIS A  11      10.884  15.267  -0.961  0.00  0.00    +0.076 C 
BRANCH 106 107
ATOM    107  CG  HIS A  11      12.194  14.836  -0.362  0.00  0.00    +0.082 A 
ATOM    108  CD2 HIS A  11      12.506  13.836   0.496  0.00  0.00    +0.115 A 
ATOM    109  NE2 HIS A  11      13.859  13.917   0.749  0.00  0.00    -0.221 NA
ATOM    110  CE1 HIS A  11      14.363  14.924   0.059  0.00  0.00    +0.199 A 
ATOM    111  ND1 HIS A  11      13.383  15.472  -0.645  0.00  0.00    -0.227 NA
ENDBRANCH 106 107
ENDBRANCH  71 106
ENDBRANCH  68  71
ENDBRANCH  66  67
ENDBRANCH  63  66
ENDBRANCH  61  62
BRANCH  61 112
ATOM    112  CB  GLU A   9      11.979  16.519  -8.173  0.00  0.00    +0.041 C 
BRANCH 112 113
ATOM    113  CG  GLU A   9      10.724  16.667  -9.028  0.00  0.00    +0.116 C 
BRANCH 113 114
ATOM    114  CD  GLU A   9       9.995  17.967  -8.719  0.00  0.00    +0.365 C 
ATOM    115  OE2 GLU A   9      10.664  18.998  -8.423  0.00  0.00    -0.246 OA
ATOM    116  OE1 GLU A   9       8.749  17.961  -8.732  0.00  0.00    -0.246 OA
ENDBRANCH 113 114
ENDBRANCH 112 113
ENDBRANCH  61 112
ENDBRANCH  59  61
ENDBRANCH   1  57
BRANCH   1 117
ATOM    117  CB  HIS A   8      15.271  17.133  -4.397  0.00  0.00    +0.076 C 
BRANCH 117 118
ATOM    118  CG  HIS A   8      15.482  15.782  -3.794  0.00  0.00    +0.082 A 
ATOM    119  CD2 HIS A   8      16.435  15.328  -2.937  0.00  0.00    +0.115 A 
ATOM    120  NE2 HIS A   8      16.164  14.003  -2.698  0.00  0.00    -0.221 NA
ATOM    121  CE1 HIS A   8      15.084  13.649  -3.379  0.00  0.00    +0.199 A 
ATOM    122  ND1 HIS A   8      14.660  14.703  -4.072  0.00  0.00    -0.227 NA
ENDBRANCH 117 118
ENDBRANCH   1 117
TORSDOF 49
REMARK  Name = ../refined-set-2016/3ivc/3ivc_pocket.pdb
REMARK  212 active torsions:
REMARK  status: ('A' for Active; 'I' for Inactive)
REMARK    1  A    between atoms: _1  and  _3
REMARK    2  A    between atoms: _3  and  _4
REMARK    3  A    between atoms: _3  and  _6
REMARK    4  A    between atoms: _10  and  _11
REMARK    5  A    between atoms: _16  and  _18
REMARK    6  A    between atoms: _18  and  _19
REMARK    7  A    between atoms: _18  and  _21
REMARK    8  A    between atoms: _21  and  _22
REMARK    9  A    between atoms: _25  and  _27
REMARK   10  A    between atoms: _27  and  _28
REMARK   11  A    between atoms: _27  and  _30
REMARK   12  A    between atoms: _30  and  _31
REMARK   13  A    between atoms: _31  and  _32
REMARK   14  A    between atoms: _34  and  _36
REMARK   15  A    between atoms: _36  and  _37
REMARK   16  A    between atoms: _39  and  _41
REMARK   17  A    between atoms: _41  and  _42
REMARK   18  A    between atoms: _45  and  _47
REMARK   19  A    between atoms: _47  and  _48
REMARK   20  A    between atoms: _47  and  _50
REMARK   21  A    between atoms: _50  and  _51
REMARK   22  A    between atoms: _54  and  _56
REMARK   23  A    between atoms: _56  and  _57
REMARK   24  A    between atoms: _56  and  _59
REMARK   25  A    between atoms: _59  and  _60
REMARK   26  A    between atoms: _65  and  _67
REMARK   27  A    between atoms: _67  and  _68
REMARK   28  A    between atoms: _67  and  _70
REMARK   29  A    between atoms: _70  and  _71
REMARK   30  A    between atoms: _71  and  _72
REMARK   31  A    between atoms: _75  and  _77
REMARK   32  A    between atoms: _77  and  _78
REMARK   33  A    between atoms: _80  and  _82
REMARK   34  A    between atoms: _82  and  _83
REMARK   35  A    between atoms: _82  and  _85
REMARK   36  A    between atoms: _85  and  _86
REMARK   37  A    between atoms: _91  and  _93
REMARK   38  A    between atoms: _93  and  _94
REMARK   39  A    between atoms: _93  and  _96
REMARK   40  A    between atoms: _96  and  _97
REMARK   41  A    between atoms: _100  and  _102
REMARK   42  A    between atoms: _102  and  _103
REMARK   43  A    between atoms: _106  and  _108
REMARK   44  A    between atoms: _108  and  _109
REMARK   45  A    between atoms: _108  and  _111
REMARK   46  A    between atoms: _111  and  _112
REMARK   47  A    between atoms: _115  and  _117
REMARK   48  A    between atoms: _117  and  _118
REMARK   49  A    between atoms: _117  and  _120
REMARK   50  A    between atoms: _123  and  _125
REMARK   51  A    between atoms: _125  and  _126
REMARK   52  A    between atoms: _125  and  _128
REMARK   53  A    between atoms: _128  and  _129
REMARK   54  A    between atoms: _131  and  _133
REMARK   55  A    between atoms: _133  and  _134
REMARK   56  A    between atoms: _133  and  _136
REMARK   57  A    between atoms: _136  and  _137
REMARK   58  A    between atoms: _140  and  _142
REMARK   59  A    between atoms: _142  and  _143
REMARK   60  A    between atoms: _142  and  _145
REMARK   61  A    between atoms: _145  and  _146
REMARK   62  A    between atoms: _152  and  _154
REMARK   63  A    between atoms: _154  and  _155
REMARK   64  A    between atoms: _154  and  _157
REMARK   65  A    between atoms: _157  and  _158
REMARK   66  A    between atoms: _163  and  _165
REMARK   67  A    between atoms: _165  and  _166
REMARK   68  A    between atoms: _165  and  _168
REMARK   69  A    between atoms: _168  and  _169
REMARK   70  A    between atoms: _169  and  _170
REMARK   71  A    between atoms: _175  and  _177
REMARK   72  A    between atoms: _177  and  _178
REMARK   73  A    between atoms: _177  and  _180
REMARK   74  A    between atoms: _180  and  _181
REMARK   75  A    between atoms: _186  and  _187
REMARK   76  A    between atoms: _189  and  _191
REMARK   77  A    between atoms: _191  and  _192
REMARK   78  A    between atoms: _191  and  _194
REMARK   79  A    between atoms: _194  and  _195
REMARK   80  A    between atoms: _200  and  _202
REMARK   81  A    between atoms: _202  and  _203
REMARK   82  A    between atoms: _202  and  _205
REMARK   83  A    between atoms: _205  and  _206
REMARK   84  A    between atoms: _212  and  _214
REMARK   85  A    between atoms: _214  and  _215
REMARK   86  A    between atoms: _217  and  _219
REMARK   87  A    between atoms: _219  and  _220
REMARK   88  A    between atoms: _219  and  _222
REMARK   89  A    between atoms: _225  and  _227
REMARK   90  A    between atoms: _227  and  _228
REMARK   91  A    between atoms: _227  and  _230
REMARK   92  A    between atoms: _230  and  _231
REMARK   93  A    between atoms: _234  and  _236
REMARK   94  A    between atoms: _236  and  _237
REMARK   95  A    between atoms: _236  and  _239
REMARK   96  A    between atoms: _242  and  _244
REMARK   97  A    between atoms: _244  and  _245
REMARK   98  A    between atoms: _244  and  _247
REMARK   99  A    between atoms: _250  and  _252
REMARK  100  A    between atoms: _252  and  _253
REMARK  101  A    between atoms: _252  and  _255
REMARK  102  A    between atoms: _255  and  _256
REMARK  103  A    between atoms: _259  and  _261
REMARK  104  A    between atoms: _261  and  _262
REMARK  105  A    between atoms: _261  and  _264
REMARK  106  A    between atoms: _264  and  _265
REMARK  107  A    between atoms: _268  and  _270
REMARK  108  A    between atoms: _270  and  _271
REMARK  109  A    between atoms: _270  and  _273
REMARK  110  A    between atoms: _276  and  _278
REMARK  111  A    between atoms: _278  and  _279
REMARK  112  A    between atoms: _278  and  _281
REMARK  113  A    between atoms: _281  and  _282
REMARK  114  A    between atoms: _288  and  _290
REMARK  115  A    between atoms: _290  and  _291
REMARK  116  A    between atoms: _290  and  _293
REMARK  117  A    between atoms: _293  and  _294
REMARK  118  A    between atoms: _300  and  _302
REMARK  119  A    between atoms: _302  and  _303
REMARK  120  A    between atoms: _305  and  _307
REMARK  121  A    between atoms: _307  and  _308
REMARK  122  A    between atoms: _307  and  _310
REMARK  123  A    between atoms: _310  and  _311
REMARK  124  A    between atoms: _311  and  _312
REMARK  125  A    between atoms: _315  and  _317
REMARK  126  A    between atoms: _317  and  _318
REMARK  127  A    between atoms: _317  and  _320
REMARK  128  A    between atoms: _320  and  _321
REMARK  129  A    between atoms: _321  and  _322
REMARK  130  A    between atoms: _322  and  _323
REMARK  131  A    between atoms: _323  and  _324
REMARK  132  A    between atoms: _328  and  _330
REMARK  133  A    between atoms: _330  and  _331
REMARK  134  A    between atoms: _330  and  _333
REMARK  135  A    between atoms: _333  and  _334
REMARK  136  A    between atoms: _337  and  _339
REMARK  137  A    between atoms: _339  and  _340
REMARK  138  A    between atoms: _339  and  _342
REMARK  139  A    between atoms: _342  and  _343
REMARK  140  A    between atoms: _343  and  _344
REMARK  141  A    between atoms: _349  and  _351
REMARK  142  A    between atoms: _351  and  _352
REMARK  143  A    between atoms: _351  and  _354
REMARK  144  A    between atoms: _354  and  _355
REMARK  145  A    between atoms: _358  and  _360
REMARK  146  A    between atoms: _360  and  _361
REMARK  147  A    between atoms: _363  and  _365
REMARK  148  A    between atoms: _365  and  _366
REMARK  149  A    between atoms: _365  and  _368
REMARK  150  A    between atoms: _372  and  _373
REMARK  151  A    between atoms: _378  and  _380
REMARK  152  A    between atoms: _380  and  _381
REMARK  153  A    between atoms: _380  and  _383
REMARK  154  A    between atoms: _383  and  _384
REMARK  155  A    between atoms: _387  and  _389
REMARK  156  A    between atoms: _389  and  _390
REMARK  157  A    between atoms: _389  and  _392
REMARK  158  A    between atoms: _395  and  _397
REMARK  159  A    between atoms: _397  and  _398
REMARK  160  A    between atoms: _397  and  _400
REMARK  161  A    between atoms: _400  and  _401
REMARK  162  A    between atoms: _401  and  _402
REMARK  163  A    between atoms: _402  and  _403
REMARK  164  A    between atoms: _412  and  _414
REMARK  165  A    between atoms: _414  and  _415
REMARK  166  A    between atoms: _414  and  _417
REMARK  167  A    between atoms: _417  and  _418
REMARK  168  A    between atoms: _421  and  _423
REMARK  169  A    between atoms: _423  and  _424
REMARK  170  A    between atoms: _427  and  _429
REMARK  171  A    between atoms: _429  and  _430
REMARK  172  A    between atoms: _429  and  _432
REMARK  173  A    between atoms: _432  and  _433
REMARK  174  A    between atoms: _433  and  _434
REMARK  175  A    between atoms: _436  and  _438
REMARK  176  A    between atoms: _438  and  _439
REMARK  177  A    between atoms: _438  and  _441
REMARK  178  A    between atoms: _441  and  _442
REMARK  179  A    between atoms: _444  and  _446
REMARK  180  A    between atoms: _446  and  _447
REMARK  181  A    between atoms: _446  and  _449
REMARK  182  A    between atoms: _449  and  _450
REMARK  183  A    between atoms: _452  and  _454
REMARK  184  A    between atoms: _454  and  _455
REMARK  185  A    between atoms: _454  and  _457
REMARK  186  A    between atoms: _457  and  _458
REMARK  187  A    between atoms: _458  and  _459
REMARK  188  A    between atoms: _459  and  _460
REMARK  189  A    between atoms: _469  and  _471
REMARK  190  A    between atoms: _471  and  _472
REMARK  191  A    between atoms: _471  and  _474
REMARK  192  A    between atoms: _474  and  _475
REMARK  193  A    between atoms: _480  and  _482
REMARK  194  A    between atoms: _482  and  _483
REMARK  195  A    between atoms: _482  and  _485
REMARK  196  A    between atoms: _485  and  _486
REMARK  197  A    between atoms: _486  and  _487
REMARK  198  A    between atoms: _487  and  _488
REMARK  199  A    between atoms: _497  and  _499
REMARK  200  A    between atoms: _499  and  _500
REMARK  201  A    between atoms: _499  and  _502
REMARK  202  A    between atoms: _502  and  _503
REMARK  203  A    between atoms: _503  and  _504
REMARK  204  A    between atoms: _504  and  _505
REMARK  205  A    between atoms: _514  and  _516
REMARK  206  A    between atoms: _516  and  _517
REMARK  207  A    between atoms: _516  and  _519
REMARK  208  A    between atoms: _519  and  _520
REMARK  209  A    between atoms: _523  and  _525
REMARK  210  A    between atoms: _525  and  _526
REMARK  211  A    between atoms: _525  and  _528
REMARK  212  A    between atoms: _528  and  _529
REMARK                            x       y       z     vdW  Elec       q    Type
REMARK                         _______ _______ _______ _____ _____    ______ ____
ROOT
ATOM      1  CA  ILE A   2      11.673  17.255   8.817  0.00  0.00    +0.148 C 
ENDROOT
BRANCH   1   3
ATOM      2  C   SER A   1       9.629  16.027   8.419  0.00  0.00    +0.241 C 
ATOM      3  N   ILE A   2      10.309  16.898   9.139  0.00  0.00    -0.297 N 
ATOM      4  H   ILE A   2       9.851  17.341   9.961  0.00  0.00    +0.150 HD
ATOM      5  O   SER A   1      10.074  15.550   7.369  0.00  0.00    -0.274 OA
BRANCH   2   6
ATOM      6  CA  SER A   1       8.238  15.674   8.965  0.00  0.00    +0.174 C 
BRANCH   6   7
ATOM      7  N   SER A   1       7.391  15.360   7.866  0.00  0.00    -0.236 NA
ATOM      8  H   SER A   1       7.350  14.403   7.461  0.00  0.00    +0.142 HD
ENDBRANCH   6   7
BRANCH   6   9
ATOM      9  CB  SER A   1       8.253  14.574  10.027  0.00  0.00    +0.163 C 
BRANCH   9  10
ATOM     10  OG  SER A   1       8.810  13.388   9.511  0.00  0.00    -0.380 OA
ATOM     11  H   SER A   1       9.739  13.562   9.218  0.00  0.00    +0.211 HD
ENDBRANCH   9  10
ENDBRANCH   6   9
ENDBRANCH   2   6
ENDBRANCH   1   3
BRANCH   1  12
ATOM     12  C   ILE A   2      12.487  17.201  10.103  0.00  0.00    +0.241 C 
ATOM     13  O   ILE A   2      12.286  18.034  10.965  0.00  0.00    -0.273 OA
ATOM     14  N   PHE A   3      13.443  16.289  10.177  0.00  0.00    -0.298 N 
ATOM     15  H   PHE A   3      13.674  15.737   9.326  0.00  0.00    +0.150 HD
BRANCH  14  16
ATOM     16  CA  PHE A   3      14.172  16.033  11.382  0.00  0.00    +0.141 C 
BRANCH  16  17
ATOM     17  C   PHE A   3      15.426  15.300  10.968  0.00  0.00    +0.227 C 
ATOM     18  O   PHE A   3      15.373  14.226  10.371  0.00  0.00    -0.286 OA
ENDBRANCH  16  17
BRANCH  16  19
ATOM     19  CB  PHE A   3      13.339  15.171  12.358  0.00  0.00    +0.054 C 
BRANCH  19  20
ATOM     20  CG  PHE A   3      14.053  14.853  13.657  0.00  0.00    -0.020 A 
ATOM     21  CD2 PHE A   3      14.519  15.866  14.479  0.00  0.00    -0.004 A 
ATOM     22  CE2 PHE A   3      15.213  15.570  15.681  0.00  0.00    -0.000 A 
ATOM     23  CZ  PHE A   3      15.425  14.261  16.068  0.00  0.00    -0.000 A 
ATOM     24  CE1 PHE A   3      14.969  13.232  15.241  0.00  0.00    -0.000 A 
ATOM     25  CD1 PHE A   3      14.281  13.527  14.046  0.00  0.00    -0.004 A 
ENDBRANCH  19  20
ENDBRANCH  16  19
ENDBRANCH  14  16
ENDBRANCH   1  12
BRANCH   1  26
ATOM     26  CB  ILE A   2      11.784  18.715   8.266  0.00  0.00    +0.027 C 
ATOM     27  CG2 ILE A   2      13.271  19.050   8.037  0.00  0.00    +0.002 C 
BRANCH  26  28
ATOM     28  CG1 ILE A   2      10.956  18.874   6.996  0.00  0.00    +0.002 C 
ATOM     29  CD1 ILE A   2      10.732  20.333   6.511  0.00  0.00    +0.000 C 
ENDBRANCH  26  28
ENDBRANCH   1  26
TORSDOF 12
REMARK  Name = ../refined-set-2016/3ivc/3ivc_pocket.pdb
REMARK  212 active torsions:
REMARK  status: ('A' for Active; 'I' for Inactive)
REMARK    1  A    between atoms: _1  and  _3
REMARK    2  A    between atoms: _3  and  _4
REMARK    3  A    between atoms: _3  and  _6
REMARK    4  A    between atoms: _10  and  _11
REMARK    5  A    between atoms: _16  and  _18
REMARK    6  A    between atoms: _18  and  _19
REMARK    7  A    between atoms: _18  and  _21
REMARK    8  A    between atoms: _21  and  _22
REMARK    9  A    between atoms: _25  and  _27
REMARK   10  A    between atoms: _27  and  _28
REMARK   11  A    between atoms: _27  and  _30
REMARK   12  A    between atoms: _30  and  _31
REMARK   13  A    between atoms: _31  and  _32
REMARK   14  A    between atoms: _34  and  _36
REMARK   15  A    between atoms: _36  and  _37
REMARK   16  A    between atoms: _39  and  _41
REMARK   17  A    between atoms: _41  and  _42
REMARK   18  A    between atoms: _45  and  _47
REMARK   19  A    between atoms: _47  and  _48
REMARK   20  A    between atoms: _47  and  _50
REMARK   21  A    between atoms: _50  and  _51
REMARK   22  A    between atoms: _54  and  _56
REMARK   23  A    between atoms: _56  and  _57
REMARK   24  A    between atoms: _56  and  _59
REMARK   25  A    between atoms: _59  and  _60
REMARK   26  A    between atoms: _65  and  _67
REMARK   27  A    between atoms: _67  and  _68
REMARK   28  A    between atoms: _67  and  _70
REMARK   29  A    between atoms: _70  and  _71
REMARK   30  A    between atoms: _71  and  _72
REMARK   31  A    between atoms: _75  and  _77
REMARK   32  A    between atoms: _77  and  _78
REMARK   33  A    between atoms: _80  and  _82
REMARK   34  A    between atoms: _82  and  _83
REMARK   35  A    between atoms: _82  and  _85
REMARK   36  A    between atoms: _85  and  _86
REMARK   37  A    between atoms: _91  and  _93
REMARK   38  A    between atoms: _93  and  _94
REMARK   39  A    between atoms: _93  and  _96
REMARK   40  A    between atoms: _96  and  _97
REMARK   41  A    between atoms: _100  and  _102
REMARK   42  A    between atoms: _102  and  _103
REMARK   43  A    between atoms: _106  and  _108
REMARK   44  A    between atoms: _108  and  _109
REMARK   45  A    between atoms: _108  and  _111
REMARK   46  A    between atoms: _111  and  _112
REMARK   47  A    between atoms: _115  and  _117
REMARK   48  A    between atoms: _117  and  _118
REMARK   49  A    between atoms: _117  and  _120
REMARK   50  A    between atoms: _123  and  _125
REMARK   51  A    between atoms: _125  and  _126
REMARK   52  A    between atoms: _125  and  _128
REMARK   53  A    between atoms: _128  and  _129
REMARK   54  A    between atoms: _131  and  _133
REMARK   55  A    between atoms: _133  and  _134
REMARK   56  A    between atoms: _133  and  _136
REMARK   57  A    between atoms: _136  and  _137
REMARK   58  A    between atoms: _140  and  _142
REMARK   59  A    between atoms: _142  and  _143
REMARK   60  A    between atoms: _142  and  _145
REMARK   61  A    between atoms: _145  and  _146
REMARK   62  A    between atoms: _152  and  _154
REMARK   63  A    between atoms: _154  and  _155
REMARK   64  A    between atoms: _154  and  _157
REMARK   65  A    between atoms: _157  and  _158
REMARK   66  A    between atoms: _163  and  _165
REMARK   67  A    between atoms: _165  and  _166
REMARK   68  A    between atoms: _165  and  _168
REMARK   69  A    between atoms: _168  and  _169
REMARK   70  A    between atoms: _169  and  _170
REMARK   71  A    between atoms: _175  and  _177
REMARK   72  A    between atoms: _177  and  _178
REMARK   73  A    between atoms: _177  and  _180
REMARK   74  A    between atoms: _180  and  _181
REMARK   75  A    between atoms: _186  and  _187
REMARK   76  A    between atoms: _189  and  _191
REMARK   77  A    between atoms: _191  and  _192
REMARK   78  A    between atoms: _191  and  _194
REMARK   79  A    between atoms: _194  and  _195
REMARK   80  A    between atoms: _200  and  _202
REMARK   81  A    between atoms: _202  and  _203
REMARK   82  A    between atoms: _202  and  _205
REMARK   83  A    between atoms: _205  and  _206
REMARK   84  A    between atoms: _212  and  _214
REMARK   85  A    between atoms: _214  and  _215
REMARK   86  A    between atoms: _217  and  _219
REMARK   87  A    between atoms: _219  and  _220
REMARK   88  A    between atoms: _219  and  _222
REMARK   89  A    between atoms: _225  and  _227
REMARK   90  A    between atoms: _227  and  _228
REMARK   91  A    between atoms: _227  and  _230
REMARK   92  A    between atoms: _230  and  _231
REMARK   93  A    between atoms: _234  and  _236
REMARK   94  A    between atoms: _236  and  _237
REMARK   95  A    between atoms: _236  and  _239
REMARK   96  A    between atoms: _242  and  _244
REMARK   97  A    between atoms: _244  and  _245
REMARK   98  A    between atoms: _244  and  _247
REMARK   99  A    between atoms: _250  and  _252
REMARK  100  A    between atoms: _252  and  _253
REMARK  101  A    between atoms: _252  and  _255
REMARK  102  A    between atoms: _255  and  _256
REMARK  103  A    between atoms: _259  and  _261
REMARK  104  A    between atoms: _261  and  _262
REMARK  105  A    between atoms: _261  and  _264
REMARK  106  A    between atoms: _264  and  _265
REMARK  107  A    between atoms: _268  and  _270
REMARK  108  A    between atoms: _270  and  _271
REMARK  109  A    between atoms: _270  and  _273
REMARK  110  A    between atoms: _276  and  _278
REMARK  111  A    between atoms: _278  and  _279
REMARK  112  A    between atoms: _278  and  _281
REMARK  113  A    between atoms: _281  and  _282
REMARK  114  A    between atoms: _288  and  _290
REMARK  115  A    between atoms: _290  and  _291
REMARK  116  A    between atoms: _290  and  _293
REMARK  117  A    between atoms: _293  and  _294
REMARK  118  A    between atoms: _300  and  _302
REMARK  119  A    between atoms: _302  and  _303
REMARK  120  A    between atoms: _305  and  _307
REMARK  121  A    between atoms: _307  and  _308
REMARK  122  A    between atoms: _307  and  _310
REMARK  123  A    between atoms: _310  and  _311
REMARK  124  A    between atoms: _311  and  _312
REMARK  125  A    between atoms: _315  and  _317
REMARK  126  A    between atoms: _317  and  _318
REMARK  127  A    between atoms: _317  and  _320
REMARK  128  A    between atoms: _320  and  _321
REMARK  129  A    between atoms: _321  and  _322
REMARK  130  A    between atoms: _322  and  _323
REMARK  131  A    between atoms: _323  and  _324
REMARK  132  A    between atoms: _328  and  _330
REMARK  133  A    between atoms: _330  and  _331
REMARK  134  A    between atoms: _330  and  _333
REMARK  135  A    between atoms: _333  and  _334
REMARK  136  A    between atoms: _337  and  _339
REMARK  137  A    between atoms: _339  and  _340
REMARK  138  A    between atoms: _339  and  _342
REMARK  139  A    between atoms: _342  and  _343
REMARK  140  A    between atoms: _343  and  _344
REMARK  141  A    between atoms: _349  and  _351
REMARK  142  A    between atoms: _351  and  _352
REMARK  143  A    between atoms: _351  and  _354
REMARK  144  A    between atoms: _354  and  _355
REMARK  145  A    between atoms: _358  and  _360
REMARK  146  A    between atoms: _360  and  _361
REMARK  147  A    between atoms: _363  and  _365
REMARK  148  A    between atoms: _365  and  _366
REMARK  149  A    between atoms: _365  and  _368
REMARK  150  A    between atoms: _372  and  _373
REMARK  151  A    between atoms: _378  and  _380
REMARK  152  A    between atoms: _380  and  _381
REMARK  153  A    between atoms: _380  and  _383
REMARK  154  A    between atoms: _383  and  _384
REMARK  155  A    between atoms: _387  and  _389
REMARK  156  A    between atoms: _389  and  _390
REMARK  157  A    between atoms: _389  and  _392
REMARK  158  A    between atoms: _395  and  _397
REMARK  159  A    between atoms: _397  and  _398
REMARK  160  A    between atoms: _397  and  _400
REMARK  161  A    between atoms: _400  and  _401
REMARK  162  A    between atoms: _401  and  _402
REMARK  163  A    between atoms: _402  and  _403
REMARK  164  A    between atoms: _412  and  _414
REMARK  165  A    between atoms: _414  and  _415
REMARK  166  A    between atoms: _414  and  _417
REMARK  167  A    between atoms: _417  and  _418
REMARK  168  A    between atoms: _421  and  _423
REMARK  169  A    between atoms: _423  and  _424
REMARK  170  A    between atoms: _427  and  _429
REMARK  171  A    between atoms: _429  and  _430
REMARK  172  A    between atoms: _429  and  _432
REMARK  173  A    between atoms: _432  and  _433
REMARK  174  A    between atoms: _433  and  _434
REMARK  175  A    between atoms: _436  and  _438
REMARK  176  A    between atoms: _438  and  _439
REMARK  177  A    between atoms: _438  and  _441
REMARK  178  A    between atoms: _441  and  _442
REMARK  179  A    between atoms: _444  and  _446
REMARK  180  A    between atoms: _446  and  _447
REMARK  181  A    between atoms: _446  and  _449
REMARK  182  A    between atoms: _449  and  _450
REMARK  183  A    between atoms: _452  and  _454
REMARK  184  A    between atoms: _454  and  _455
REMARK  185  A    between atoms: _454  and  _457
REMARK  186  A    between atoms: _457  and  _458
REMARK  187  A    between atoms: _458  and  _459
REMARK  188  A    between atoms: _459  and  _460
REMARK  189  A    between atoms: _469  and  _471
REMARK  190  A    between atoms: _471  and  _472
REMARK  191  A    between atoms: _471  and  _474
REMARK  192  A    between atoms: _474  and  _475
REMARK  193  A    between atoms: _480  and  _482
REMARK  194  A    between atoms: _482  and  _483
REMARK  195  A    between atoms: _482  and  _485
REMARK  196  A    between atoms: _485  and  _486
REMARK  197  A    between atoms: _486  and  _487
REMARK  198  A    between atoms: _487  and  _488
REMARK  199  A    between atoms: _497  and  _499
REMARK  200  A    between atoms: _499  and  _500
REMARK  201  A    between atoms: _499  and  _502
REMARK  202  A    between atoms: _502  and  _503
REMARK  203  A    between atoms: _503  and  _504
REMARK  204  A    between atoms: _504  and  _505
REMARK  205  A    between atoms: _514  and  _516
REMARK  206  A    between atoms: _516  and  _517
REMARK  207  A    between atoms: _516  and  _519
REMARK  208  A    between atoms: _519  and  _520
REMARK  209  A    between atoms: _523  and  _525
REMARK  210  A    between atoms: _525  and  _526
REMARK  211  A    between atoms: _525  and  _528
REMARK  212  A    between atoms: _528  and  _529
REMARK                            x       y       z     vdW  Elec       q    Type
REMARK                         _______ _______ _______ _____ _____    ______ ____
ROOT
ATOM      1  CB  ASN A   1      17.419  11.103  12.882  0.00  0.00    +0.110 C 
ENDROOT
BRANCH   1   2
ATOM      2  CG  ASN A   1      17.467  10.117  14.034  0.00  0.00    +0.221 C 
ATOM      3  OD1 ASN A   1      17.678  10.524  15.191  0.00  0.00    -0.275 OA
ATOM      4  ND2 ASN A   1      17.267   8.798  13.733  0.00  0.00    -0.329 N 
ATOM      5 HD21 ASN A   1      17.287   8.083  14.488  0.00  0.00    +0.145 HD
ATOM      6 HD22 ASN A   1      17.094   8.510  12.749  0.00  0.00    +0.145 HD
ENDBRANCH   1   2
BRANCH   1   7
ATOM      7  CA  ASN A   1      18.065  12.455  13.230  0.00  0.00    +0.142 C 
BRANCH   7   8
ATOM      8  N   ASN A   1      18.041  13.279  12.062  0.00  0.00    -0.239 NA
ATOM      9  H   ASN A   1      17.872  12.838  11.135  0.00  0.00    +0.142 HD
ENDBRANCH   7   8
BRANCH   7  10
ATOM     10  C   ASN A   1      19.496  12.262  13.621  0.00  0.00    +0.225 C 
ATOM     11  O   ASN A   1      20.209  11.620  12.857  0.00  0.00    -0.287 OA
ENDBRANCH   7  10
ENDBRANCH   1   7
TORSDOF 4
REMARK  Name = ../refined-set-2016/3ivc/3ivc_pocket.pdb
REMARK  212 active torsions:
REMARK  status: ('A' for Active; 'I' for Inactive)
REMARK    1  A    between atoms: _1  and  _3
REMARK    2  A    between atoms: _3  and  _4
REMARK    3  A    between atoms: _3  and  _6
REMARK    4  A    between atoms: _10  and  _11
REMARK    5  A    between atoms: _16  and  _18
REMARK    6  A    between atoms: _18  and  _19
REMARK    7  A    between atoms: _18  and  _21
REMARK    8  A    between atoms: _21  and  _22
REMARK    9  A    between atoms: _25  and  _27
REMARK   10  A    between atoms: _27  and  _28
REMARK   11  A    between atoms: _27  and  _30
REMARK   12  A    between atoms: _30  and  _31
REMARK   13  A    between atoms: _31  and  _32
REMARK   14  A    between atoms: _34  and  _36
REMARK   15  A    between atoms: _36  and  _37
REMARK   16  A    between atoms: _39  and  _41
REMARK   17  A    between atoms: _41  and  _42
REMARK   18  A    between atoms: _45  and  _47
REMARK   19  A    between atoms: _47  and  _48
REMARK   20  A    between atoms: _47  and  _50
REMARK   21  A    between atoms: _50  and  _51
REMARK   22  A    between atoms: _54  and  _56
REMARK   23  A    between atoms: _56  and  _57
REMARK   24  A    between atoms: _56  and  _59
REMARK   25  A    between atoms: _59  and  _60
REMARK   26  A    between atoms: _65  and  _67
REMARK   27  A    between atoms: _67  and  _68
REMARK   28  A    between atoms: _67  and  _70
REMARK   29  A    between atoms: _70  and  _71
REMARK   30  A    between atoms: _71  and  _72
REMARK   31  A    between atoms: _75  and  _77
REMARK   32  A    between atoms: _77  and  _78
REMARK   33  A    between atoms: _80  and  _82
REMARK   34  A    between atoms: _82  and  _83
REMARK   35  A    between atoms: _82  and  _85
REMARK   36  A    between atoms: _85  and  _86
REMARK   37  A    between atoms: _91  and  _93
REMARK   38  A    between atoms: _93  and  _94
REMARK   39  A    between atoms: _93  and  _96
REMARK   40  A    between atoms: _96  and  _97
REMARK   41  A    between atoms: _100  and  _102
REMARK   42  A    between atoms: _102  and  _103
REMARK   43  A    between atoms: _106  and  _108
REMARK   44  A    between atoms: _108  and  _109
REMARK   45  A    between atoms: _108  and  _111
REMARK   46  A    between atoms: _111  and  _112
REMARK   47  A    between atoms: _115  and  _117
REMARK   48  A    between atoms: _117  and  _118
REMARK   49  A    between atoms: _117  and  _120
REMARK   50  A    between atoms: _123  and  _125
REMARK   51  A    between atoms: _125  and  _126
REMARK   52  A    between atoms: _125  and  _128
REMARK   53  A    between atoms: _128  and  _129
REMARK   54  A    between atoms: _131  and  _133
REMARK   55  A    between atoms: _133  and  _134
REMARK   56  A    between atoms: _133  and  _136
REMARK   57  A    between atoms: _136  and  _137
REMARK   58  A    between atoms: _140  and  _142
REMARK   59  A    between atoms: _142  and  _143
REMARK   60  A    between atoms: _142  and  _145
REMARK   61  A    between atoms: _145  and  _146
REMARK   62  A    between atoms: _152  and  _154
REMARK   63  A    between atoms: _154  and  _155
REMARK   64  A    between atoms: _154  and  _157
REMARK   65  A    between atoms: _157  and  _158
REMARK   66  A    between atoms: _163  and  _165
REMARK   67  A    between atoms: _165  and  _166
REMARK   68  A    between atoms: _165  and  _168
REMARK   69  A    between atoms: _168  and  _169
REMARK   70  A    between atoms: _169  and  _170
REMARK   71  A    between atoms: _175  and  _177
REMARK   72  A    between atoms: _177  and  _178
REMARK   73  A    between atoms: _177  and  _180
REMARK   74  A    between atoms: _180  and  _181
REMARK   75  A    between atoms: _186  and  _187
REMARK   76  A    between atoms: _189  and  _191
REMARK   77  A    between atoms: _191  and  _192
REMARK   78  A    between atoms: _191  and  _194
REMARK   79  A    between atoms: _194  and  _195
REMARK   80  A    between atoms: _200  and  _202
REMARK   81  A    between atoms: _202  and  _203
REMARK   82  A    between atoms: _202  and  _205
REMARK   83  A    between atoms: _205  and  _206
REMARK   84  A    between atoms: _212  and  _214
REMARK   85  A    between atoms: _214  and  _215
REMARK   86  A    between atoms: _217  and  _219
REMARK   87  A    between atoms: _219  and  _220
REMARK   88  A    between atoms: _219  and  _222
REMARK   89  A    between atoms: _225  and  _227
REMARK   90  A    between atoms: _227  and  _228
REMARK   91  A    between atoms: _227  and  _230
REMARK   92  A    between atoms: _230  and  _231
REMARK   93  A    between atoms: _234  and  _236
REMARK   94  A    between atoms: _236  and  _237
REMARK   95  A    between atoms: _236  and  _239
REMARK   96  A    between atoms: _242  and  _244
REMARK   97  A    between atoms: _244  and  _245
REMARK   98  A    between atoms: _244  and  _247
REMARK   99  A    between atoms: _250  and  _252
REMARK  100  A    between atoms: _252  and  _253
REMARK  101  A    between atoms: _252  and  _255
REMARK  102  A    between atoms: _255  and  _256
REMARK  103  A    between atoms: _259  and  _261
REMARK  104  A    between atoms: _261  and  _262
REMARK  105  A    between atoms: _261  and  _264
REMARK  106  A    between atoms: _264  and  _265
REMARK  107  A    between atoms: _268  and  _270
REMARK  108  A    between atoms: _270  and  _271
REMARK  109  A    between atoms: _270  and  _273
REMARK  110  A    between atoms: _276  and  _278
REMARK  111  A    between atoms: _278  and  _279
REMARK  112  A    between atoms: _278  and  _281
REMARK  113  A    between atoms: _281  and  _282
REMARK  114  A    between atoms: _288  and  _290
REMARK  115  A    between atoms: _290  and  _291
REMARK  116  A    between atoms: _290  and  _293
REMARK  117  A    between atoms: _293  and  _294
REMARK  118  A    between atoms: _300  and  _302
REMARK  119  A    between atoms: _302  and  _303
REMARK  120  A    between atoms: _305  and  _307
REMARK  121  A    between atoms: _307  and  _308
REMARK  122  A    between atoms: _307  and  _310
REMARK  123  A    between atoms: _310  and  _311
REMARK  124  A    between atoms: _311  and  _312
REMARK  125  A    between atoms: _315  and  _317
REMARK  126  A    between atoms: _317  and  _318
REMARK  127  A    between atoms: _317  and  _320
REMARK  128  A    between atoms: _320  and  _321
REMARK  129  A    between atoms: _321  and  _322
REMARK  130  A    between atoms: _322  and  _323
REMARK  131  A    between atoms: _323  and  _324
REMARK  132  A    between atoms: _328  and  _330
REMARK  133  A    between atoms: _330  and  _331
REMARK  134  A    between atoms: _330  and  _333
REMARK  135  A    between atoms: _333  and  _334
REMARK  136  A    between atoms: _337  and  _339
REMARK  137  A    between atoms: _339  and  _340
REMARK  138  A    between atoms: _339  and  _342
REMARK  139  A    between atoms: _342  and  _343
REMARK  140  A    between atoms: _343  and  _344
REMARK  141  A    between atoms: _349  and  _351
REMARK  142  A    between atoms: _351  and  _352
REMARK  143  A    between atoms: _351  and  _354
REMARK  144  A    between atoms: _354  and  _355
REMARK  145  A    between atoms: _358  and  _360
REMARK  146  A    between atoms: _360  and  _361
REMARK  147  A    between atoms: _363  and  _365
REMARK  148  A    between atoms: _365  and  _366
REMARK  149  A    between atoms: _365  and  _368
REMARK  150  A    between atoms: _372  and  _373
REMARK  151  A    between atoms: _378  and  _380
REMARK  152  A    between atoms: _380  and  _381
REMARK  153  A    between atoms: _380  and  _383
REMARK  154  A    between atoms: _383  and  _384
REMARK  155  A    between atoms: _387  and  _389
REMARK  156  A    between atoms: _389  and  _390
REMARK  157  A    between atoms: _389  and  _392
REMARK  158  A    between atoms: _395  and  _397
REMARK  159  A    between atoms: _397  and  _398
REMARK  160  A    between atoms: _397  and  _400
REMARK  161  A    between atoms: _400  and  _401
REMARK  162  A    between atoms: _401  and  _402
REMARK  163  A    between atoms: _402  and  _403
REMARK  164  A    between atoms: _412  and  _414
REMARK  165  A    between atoms: _414  and  _415
REMARK  166  A    between atoms: _414  and  _417
REMARK  167  A    between atoms: _417  and  _418
REMARK  168  A    between atoms: _421  and  _423
REMARK  169  A    between atoms: _423  and  _424
REMARK  170  A    between atoms: _427  and  _429
REMARK  171  A    between atoms: _429  and  _430
REMARK  172  A    between atoms: _429  and  _432
REMARK  173  A    between atoms: _432  and  _433
REMARK  174  A    between atoms: _433  and  _434
REMARK  175  A    between atoms: _436  and  _438
REMARK  176  A    between atoms: _438  and  _439
REMARK  177  A    between atoms: _438  and  _441
REMARK  178  A    between atoms: _441  and  _442
REMARK  179  A    between atoms: _444  and  _446
REMARK  180  A    between atoms: _446  and  _447
REMARK  181  A    between atoms: _446  and  _449
REMARK  182  A    between atoms: _449  and  _450
REMARK  183  A    between atoms: _452  and  _454
REMARK  184  A    between atoms: _454  and  _455
REMARK  185  A    between atoms: _454  and  _457
REMARK  186  A    between atoms: _457  and  _458
REMARK  187  A    between atoms: _458  and  _459
REMARK  188  A    between atoms: _459  and  _460
REMARK  189  A    between atoms: _469  and  _471
REMARK  190  A    between atoms: _471  and  _472
REMARK  191  A    between atoms: _471  and  _474
REMARK  192  A    between atoms: _474  and  _475
REMARK  193  A    between atoms: _480  and  _482
REMARK  194  A    between atoms: _482  and  _483
REMARK  195  A    between atoms: _482  and  _485
REMARK  196  A    between atoms: _485  and  _486
REMARK  197  A    between atoms: _486  and  _487
REMARK  198  A    between atoms: _487  and  _488
REMARK  199  A    between atoms: _497  and  _499
REMARK  200  A    between atoms: _499  and  _500
REMARK  201  A    between atoms: _499  and  _502
REMARK  202  A    between atoms: _502  and  _503
REMARK  203  A    between atoms: _503  and  _504
REMARK  204  A    between atoms: _504  and  _505
REMARK  205  A    between atoms: _514  and  _516
REMARK  206  A    between atoms: _516  and  _517
REMARK  207  A    between atoms: _516  and  _519
REMARK  208  A    between atoms: _519  and  _520
REMARK  209  A    between atoms: _523  and  _525
REMARK  210  A    between atoms: _525  and  _526
REMARK  211  A    between atoms: _525  and  _528
REMARK  212  A    between atoms: _528  and  _529
REMARK                            x       y       z     vdW  Elec       q    Type
REMARK                         _______ _______ _______ _____ _____    ______ ____
ROOT
ATOM      1  CB  GLN A   1      20.656   7.956  11.221  0.00  0.00    +0.035 C 
ENDROOT
BRANCH   1   2
ATOM      2  CA  GLN A   1      21.827   8.226  12.242  0.00  0.00    +0.134 C 
BRANCH   2   3
ATOM      3  N   GLN A   1      21.346   8.780  13.518  0.00  0.00    -0.239 NA
ATOM      4  H   GLN A   1      21.072   9.783  13.546  0.00  0.00    +0.142 HD
ENDBRANCH   2   3
BRANCH   2   5
ATOM      5  C   GLN A   1      23.074   9.025  11.709  0.00  0.00    +0.224 C 
ATOM      6  O   GLN A   1      23.384   9.017  10.510  0.00  0.00    -0.287 OA
ENDBRANCH   2   5
ENDBRANCH   1   2
BRANCH   1   7
ATOM      7  CG  GLN A   1      19.911   9.179  10.581  0.00  0.00    +0.087 C 
BRANCH   7   8
ATOM      8  CD  GLN A   1      18.567   8.826   9.870  0.00  0.00    +0.219 C 
ATOM      9  OE1 GLN A   1      17.494   8.758  10.494  0.00  0.00    -0.275 OA
ATOM     10  NE2 GLN A   1      18.629   8.641   8.560  0.00  0.00    -0.329 N 
ATOM     11 HE21 GLN A   1      19.543   8.705   8.069  0.00  0.00    +0.145 HD
ATOM     12 HE22 GLN A   1      17.763   8.432   8.023  0.00  0.00    +0.145 HD
ENDBRANCH   7   8
ENDBRANCH   1   7
TORSDOF 5
REMARK  Name = ../refined-set-2016/3ivc/3ivc_pocket.pdb
REMARK  212 active torsions:
REMARK  status: ('A' for Active; 'I' for Inactive)
REMARK    1  A    between atoms: _1  and  _3
REMARK    2  A    between atoms: _3  and  _4
REMARK    3  A    between atoms: _3  and  _6
REMARK    4  A    between atoms: _10  and  _11
REMARK    5  A    between atoms: _16  and  _18
REMARK    6  A    between atoms: _18  and  _19
REMARK    7  A    between atoms: _18  and  _21
REMARK    8  A    between atoms: _21  and  _22
REMARK    9  A    between atoms: _25  and  _27
REMARK   10  A    between atoms: _27  and  _28
REMARK   11  A    between atoms: _27  and  _30
REMARK   12  A    between atoms: _30  and  _31
REMARK   13  A    between atoms: _31  and  _32
REMARK   14  A    between atoms: _34  and  _36
REMARK   15  A    between atoms: _36  and  _37
REMARK   16  A    between atoms: _39  and  _41
REMARK   17  A    between atoms: _41  and  _42
REMARK   18  A    between atoms: _45  and  _47
REMARK   19  A    between atoms: _47  and  _48
REMARK   20  A    between atoms: _47  and  _50
REMARK   21  A    between atoms: _50  and  _51
REMARK   22  A    between atoms: _54  and  _56
REMARK   23  A    between atoms: _56  and  _57
REMARK   24  A    between atoms: _56  and  _59
REMARK   25  A    between atoms: _59  and  _60
REMARK   26  A    between atoms: _65  and  _67
REMARK   27  A    between atoms: _67  and  _68
REMARK   28  A    between atoms: _67  and  _70
REMARK   29  A    between atoms: _70  and  _71
REMARK   30  A    between atoms: _71  and  _72
REMARK   31  A    between atoms: _75  and  _77
REMARK   32  A    between atoms: _77  and  _78
REMARK   33  A    between atoms: _80  and  _82
REMARK   34  A    between atoms: _82  and  _83
REMARK   35  A    between atoms: _82  and  _85
REMARK   36  A    between atoms: _85  and  _86
REMARK   37  A    between atoms: _91  and  _93
REMARK   38  A    between atoms: _93  and  _94
REMARK   39  A    between atoms: _93  and  _96
REMARK   40  A    between atoms: _96  and  _97
REMARK   41  A    between atoms: _100  and  _102
REMARK   42  A    between atoms: _102  and  _103
REMARK   43  A    between atoms: _106  and  _108
REMARK   44  A    between atoms: _108  and  _109
REMARK   45  A    between atoms: _108  and  _111
REMARK   46  A    between atoms: _111  and  _112
REMARK   47  A    between atoms: _115  and  _117
REMARK   48  A    between atoms: _117  and  _118
REMARK   49  A    between atoms: _117  and  _120
REMARK   50  A    between atoms: _123  and  _125
REMARK   51  A    between atoms: _125  and  _126
REMARK   52  A    between atoms: _125  and  _128
REMARK   53  A    between atoms: _128  and  _129
REMARK   54  A    between atoms: _131  and  _133
REMARK   55  A    between atoms: _133  and  _134
REMARK   56  A    between atoms: _133  and  _136
REMARK   57  A    between atoms: _136  and  _137
REMARK   58  A    between atoms: _140  and  _142
REMARK   59  A    between atoms: _142  and  _143
REMARK   60  A    between atoms: _142  and  _145
REMARK   61  A    between atoms: _145  and  _146
REMARK   62  A    between atoms: _152  and  _154
REMARK   63  A    between atoms: _154  and  _155
REMARK   64  A    between atoms: _154  and  _157
REMARK   65  A    between atoms: _157  and  _158
REMARK   66  A    between atoms: _163  and  _165
REMARK   67  A    between atoms: _165  and  _166
REMARK   68  A    between atoms: _165  and  _168
REMARK   69  A    between atoms: _168  and  _169
REMARK   70  A    between atoms: _169  and  _170
REMARK   71  A    between atoms: _175  and  _177
REMARK   72  A    between atoms: _177  and  _178
REMARK   73  A    between atoms: _177  and  _180
REMARK   74  A    between atoms: _180  and  _181
REMARK   75  A    between atoms: _186  and  _187
REMARK   76  A    between atoms: _189  and  _191
REMARK   77  A    between atoms: _191  and  _192
REMARK   78  A    between atoms: _191  and  _194
REMARK   79  A    between atoms: _194  and  _195
REMARK   80  A    between atoms: _200  and  _202
REMARK   81  A    between atoms: _202  and  _203
REMARK   82  A    between atoms: _202  and  _205
REMARK   83  A    between atoms: _205  and  _206
REMARK   84  A    between atoms: _212  and  _214
REMARK   85  A    between atoms: _214  and  _215
REMARK   86  A    between atoms: _217  and  _219
REMARK   87  A    between atoms: _219  and  _220
REMARK   88  A    between atoms: _219  and  _222
REMARK   89  A    between atoms: _225  and  _227
REMARK   90  A    between atoms: _227  and  _228
REMARK   91  A    between atoms: _227  and  _230
REMARK   92  A    between atoms: _230  and  _231
REMARK   93  A    between atoms: _234  and  _236
REMARK   94  A    between atoms: _236  and  _237
REMARK   95  A    between atoms: _236  and  _239
REMARK   96  A    between atoms: _242  and  _244
REMARK   97  A    between atoms: _244  and  _245
REMARK   98  A    between atoms: _244  and  _247
REMARK   99  A    between atoms: _250  and  _252
REMARK  100  A    between atoms: _252  and  _253
REMARK  101  A    between atoms: _252  and  _255
REMARK  102  A    between atoms: _255  and  _256
REMARK  103  A    between atoms: _259  and  _261
REMARK  104  A    between atoms: _261  and  _262
REMARK  105  A    between atoms: _261  and  _264
REMARK  106  A    between atoms: _264  and  _265
REMARK  107  A    between atoms: _268  and  _270
REMARK  108  A    between atoms: _270  and  _271
REMARK  109  A    between atoms: _270  and  _273
REMARK  110  A    between atoms: _276  and  _278
REMARK  111  A    between atoms: _278  and  _279
REMARK  112  A    between atoms: _278  and  _281
REMARK  113  A    between atoms: _281  and  _282
REMARK  114  A    between atoms: _288  and  _290
REMARK  115  A    between atoms: _290  and  _291
REMARK  116  A    between atoms: _290  and  _293
REMARK  117  A    between atoms: _293  and  _294
REMARK  118  A    between atoms: _300  and  _302
REMARK  119  A    between atoms: _302  and  _303
REMARK  120  A    between atoms: _305  and  _307
REMARK  121  A    between atoms: _307  and  _308
REMARK  122  A    between atoms: _307  and  _310
REMARK  123  A    between atoms: _310  and  _311
REMARK  124  A    between atoms: _311  and  _312
REMARK  125  A    between atoms: _315  and  _317
REMARK  126  A    between atoms: _317  and  _318
REMARK  127  A    between atoms: _317  and  _320
REMARK  128  A    between atoms: _320  and  _321
REMARK  129  A    between atoms: _321  and  _322
REMARK  130  A    between atoms: _322  and  _323
REMARK  131  A    between atoms: _323  and  _324
REMARK  132  A    between atoms: _328  and  _330
REMARK  133  A    between atoms: _330  and  _331
REMARK  134  A    between atoms: _330  and  _333
REMARK  135  A    between atoms: _333  and  _334
REMARK  136  A    between atoms: _337  and  _339
REMARK  137  A    between atoms: _339  and  _340
REMARK  138  A    between atoms: _339  and  _342
REMARK  139  A    between atoms: _342  and  _343
REMARK  140  A    between atoms: _343  and  _344
REMARK  141  A    between atoms: _349  and  _351
REMARK  142  A    between atoms: _351  and  _352
REMARK  143  A    between atoms: _351  and  _354
REMARK  144  A    between atoms: _354  and  _355
REMARK  145  A    between atoms: _358  and  _360
REMARK  146  A    between atoms: _360  and  _361
REMARK  147  A    between atoms: _363  and  _365
REMARK  148  A    between atoms: _365  and  _366
REMARK  149  A    between atoms: _365  and  _368
REMARK  150  A    between atoms: _372  and  _373
REMARK  151  A    between atoms: _378  and  _380
REMARK  152  A    between atoms: _380  and  _381
REMARK  153  A    between atoms: _380  and  _383
REMARK  154  A    between atoms: _383  and  _384
REMARK  155  A    between atoms: _387  and  _389
REMARK  156  A    between atoms: _389  and  _390
REMARK  157  A    between atoms: _389  and  _392
REMARK  158  A    between atoms: _395  and  _397
REMARK  159  A    between atoms: _397  and  _398
REMARK  160  A    between atoms: _397  and  _400
REMARK  161  A    between atoms: _400  and  _401
REMARK  162  A    between atoms: _401  and  _402
REMARK  163  A    between atoms: _402  and  _403
REMARK  164  A    between atoms: _412  and  _414
REMARK  165  A    between atoms: _414  and  _415
REMARK  166  A    between atoms: _414  and  _417
REMARK  167  A    between atoms: _417  and  _418
REMARK  168  A    between atoms: _421  and  _423
REMARK  169  A    between atoms: _423  and  _424
REMARK  170  A    between atoms: _427  and  _429
REMARK  171  A    between atoms: _429  and  _430
REMARK  172  A    between atoms: _429  and  _432
REMARK  173  A    between atoms: _432  and  _433
REMARK  174  A    between atoms: _433  and  _434
REMARK  175  A    between atoms: _436  and  _438
REMARK  176  A    between atoms: _438  and  _439
REMARK  177  A    between atoms: _438  and  _441
REMARK  178  A    between atoms: _441  and  _442
REMARK  179  A    between atoms: _444  and  _446
REMARK  180  A    between atoms: _446  and  _447
REMARK  181  A    between atoms: _446  and  _449
REMARK  182  A    between atoms: _449  and  _450
REMARK  183  A    between atoms: _452  and  _454
REMARK  184  A    between atoms: _454  and  _455
REMARK  185  A    between atoms: _454  and  _457
REMARK  186  A    between atoms: _457  and  _458
REMARK  187  A    between atoms: _458  and  _459
REMARK  188  A    between atoms: _459  and  _460
REMARK  189  A    between atoms: _469  and  _471
REMARK  190  A    between atoms: _471  and  _472
REMARK  191  A    between atoms: _471  and  _474
REMARK  192  A    between atoms: _474  and  _475
REMARK  193  A    between atoms: _480  and  _482
REMARK  194  A    between atoms: _482  and  _483
REMARK  195  A    between atoms: _482  and  _485
REMARK  196  A    between atoms: _485  and  _486
REMARK  197  A    between atoms: _486  and  _487
REMARK  198  A    between atoms: _487  and  _488
REMARK  199  A    between atoms: _497  and  _499
REMARK  200  A    between atoms: _499  and  _500
REMARK  201  A    between atoms: _499  and  _502
REMARK  202  A    between atoms: _502  and  _503
REMARK  203  A    between atoms: _503  and  _504
REMARK  204  A    between atoms: _504  and  _505
REMARK  205  A    between atoms: _514  and  _516
REMARK  206  A    between atoms: _516  and  _517
REMARK  207  A    between atoms: _516  and  _519
REMARK  208  A    between atoms: _519  and  _520
REMARK  209  A    between atoms: _523  and  _525
REMARK  210  A    between atoms: _525  and  _526
REMARK  211  A    between atoms: _525  and  _528
REMARK  212  A    between atoms: _528  and  _529
REMARK                            x       y       z     vdW  Elec       q    Type
REMARK                         _______ _______ _______ _____ _____    ______ ____
ROOT
ATOM      1  CG  TYR A   1      21.558  15.639   5.842  0.00  0.00    -0.020 A 
ATOM      2  CD2 TYR A   1      20.346  16.278   5.576  0.00  0.00    -0.001 A 
ATOM      3  CE2 TYR A   1      19.419  15.737   4.655  0.00  0.00    +0.036 A 
ATOM      4  CZ  TYR A   1      19.688  14.525   4.018  0.00  0.00    +0.134 A 
ATOM      5  CE1 TYR A   1      20.884  13.834   4.281  0.00  0.00    +0.036 A 
ATOM      6  CD1 TYR A   1      21.835  14.428   5.182  0.00  0.00    -0.001 A 
ENDROOT
BRANCH   4   7
ATOM      7  OH  TYR A   1      18.747  14.019   3.127  0.00  0.00    -0.506 OA
ATOM      8  HH  TYR A   1      17.891  13.871   3.602  0.00  0.00    +0.292 HD
ENDBRANCH   4   7
BRANCH   1   9
ATOM      9  CB  TYR A   1      22.557  16.253   6.781  0.00  0.00    +0.051 C 
BRANCH   9  10
ATOM     10  CA  TYR A   1      23.598  17.189   6.114  0.00  0.00    +0.137 C 
BRANCH  10  11
ATOM     11  N   TYR A   1      24.611  17.521   7.120  0.00  0.00    -0.239 NA
ATOM     12  H   TYR A   1      24.418  17.249   8.105  0.00  0.00    +0.142 HD
ENDBRANCH  10  11
BRANCH  10  13
ATOM     13  C   TYR A   1      22.985  18.500   5.576  0.00  0.00    +0.224 C 
ATOM     14  O   TYR A   1      22.835  19.472   6.332  0.00  0.00    -0.287 OA
ENDBRANCH  10  13
ENDBRANCH   9  10
ENDBRANCH   1   9
TORSDOF 5
REMARK  Name = ../refined-set-2016/3ivc/3ivc_pocket.pdb
REMARK  212 active torsions:
REMARK  status: ('A' for Active; 'I' for Inactive)
REMARK    1  A    between atoms: _1  and  _3
REMARK    2  A    between atoms: _3  and  _4
REMARK    3  A    between atoms: _3  and  _6
REMARK    4  A    between atoms: _10  and  _11
REMARK    5  A    between atoms: _16  and  _18
REMARK    6  A    between atoms: _18  and  _19
REMARK    7  A    between atoms: _18  and  _21
REMARK    8  A    between atoms: _21  and  _22
REMARK    9  A    between atoms: _25  and  _27
REMARK   10  A    between atoms: _27  and  _28
REMARK   11  A    between atoms: _27  and  _30
REMARK   12  A    between atoms: _30  and  _31
REMARK   13  A    between atoms: _31  and  _32
REMARK   14  A    between atoms: _34  and  _36
REMARK   15  A    between atoms: _36  and  _37
REMARK   16  A    between atoms: _39  and  _41
REMARK   17  A    between atoms: _41  and  _42
REMARK   18  A    between atoms: _45  and  _47
REMARK   19  A    between atoms: _47  and  _48
REMARK   20  A    between atoms: _47  and  _50
REMARK   21  A    between atoms: _50  and  _51
REMARK   22  A    between atoms: _54  and  _56
REMARK   23  A    between atoms: _56  and  _57
REMARK   24  A    between atoms: _56  and  _59
REMARK   25  A    between atoms: _59  and  _60
REMARK   26  A    between atoms: _65  and  _67
REMARK   27  A    between atoms: _67  and  _68
REMARK   28  A    between atoms: _67  and  _70
REMARK   29  A    between atoms: _70  and  _71
REMARK   30  A    between atoms: _71  and  _72
REMARK   31  A    between atoms: _75  and  _77
REMARK   32  A    between atoms: _77  and  _78
REMARK   33  A    between atoms: _80  and  _82
REMARK   34  A    between atoms: _82  and  _83
REMARK   35  A    between atoms: _82  and  _85
REMARK   36  A    between atoms: _85  and  _86
REMARK   37  A    between atoms: _91  and  _93
REMARK   38  A    between atoms: _93  and  _94
REMARK   39  A    between atoms: _93  and  _96
REMARK   40  A    between atoms: _96  and  _97
REMARK   41  A    between atoms: _100  and  _102
REMARK   42  A    between atoms: _102  and  _103
REMARK   43  A    between atoms: _106  and  _108
REMARK   44  A    between atoms: _108  and  _109
REMARK   45  A    between atoms: _108  and  _111
REMARK   46  A    between atoms: _111  and  _112
REMARK   47  A    between atoms: _115  and  _117
REMARK   48  A    between atoms: _117  and  _118
REMARK   49  A    between atoms: _117  and  _120
REMARK   50  A    between atoms: _123  and  _125
REMARK   51  A    between atoms: _125  and  _126
REMARK   52  A    between atoms: _125  and  _128
REMARK   53  A    between atoms: _128  and  _129
REMARK   54  A    between atoms: _131  and  _133
REMARK   55  A    between atoms: _133  and  _134
REMARK   56  A    between atoms: _133  and  _136
REMARK   57  A    between atoms: _136  and  _137
REMARK   58  A    between atoms: _140  and  _142
REMARK   59  A    between atoms: _142  and  _143
REMARK   60  A    between atoms: _142  and  _145
REMARK   61  A    between atoms: _145  and  _146
REMARK   62  A    between atoms: _152  and  _154
REMARK   63  A    between atoms: _154  and  _155
REMARK   64  A    between atoms: _154  and  _157
REMARK   65  A    between atoms: _157  and  _158
REMARK   66  A    between atoms: _163  and  _165
REMARK   67  A    between atoms: _165  and  _166
REMARK   68  A    between atoms: _165  and  _168
REMARK   69  A    between atoms: _168  and  _169
REMARK   70  A    between atoms: _169  and  _170
REMARK   71  A    between atoms: _175  and  _177
REMARK   72  A    between atoms: _177  and  _178
REMARK   73  A    between atoms: _177  and  _180
REMARK   74  A    between atoms: _180  and  _181
REMARK   75  A    between atoms: _186  and  _187
REMARK   76  A    between atoms: _189  and  _191
REMARK   77  A    between atoms: _191  and  _192
REMARK   78  A    between atoms: _191  and  _194
REMARK   79  A    between atoms: _194  and  _195
REMARK   80  A    between atoms: _200  and  _202
REMARK   81  A    between atoms: _202  and  _203
REMARK   82  A    between atoms: _202  and  _205
REMARK   83  A    between atoms: _205  and  _206
REMARK   84  A    between atoms: _212  and  _214
REMARK   85  A    between atoms: _214  and  _215
REMARK   86  A    between atoms: _217  and  _219
REMARK   87  A    between atoms: _219  and  _220
REMARK   88  A    between atoms: _219  and  _222
REMARK   89  A    between atoms: _225  and  _227
REMARK   90  A    between atoms: _227  and  _228
REMARK   91  A    between atoms: _227  and  _230
REMARK   92  A    between atoms: _230  and  _231
REMARK   93  A    between atoms: _234  and  _236
REMARK   94  A    between atoms: _236  and  _237
REMARK   95  A    between atoms: _236  and  _239
REMARK   96  A    between atoms: _242  and  _244
REMARK   97  A    between atoms: _244  and  _245
REMARK   98  A    between atoms: _244  and  _247
REMARK   99  A    between atoms: _250  and  _252
REMARK  100  A    between atoms: _252  and  _253
REMARK  101  A    between atoms: _252  and  _255
REMARK  102  A    between atoms: _255  and  _256
REMARK  103  A    between atoms: _259  and  _261
REMARK  104  A    between atoms: _261  and  _262
REMARK  105  A    between atoms: _261  and  _264
REMARK  106  A    between atoms: _264  and  _265
REMARK  107  A    between atoms: _268  and  _270
REMARK  108  A    between atoms: _270  and  _271
REMARK  109  A    between atoms: _270  and  _273
REMARK  110  A    between atoms: _276  and  _278
REMARK  111  A    between atoms: _278  and  _279
REMARK  112  A    between atoms: _278  and  _281
REMARK  113  A    between atoms: _281  and  _282
REMARK  114  A    between atoms: _288  and  _290
REMARK  115  A    between atoms: _290  and  _291
REMARK  116  A    between atoms: _290  and  _293
REMARK  117  A    between atoms: _293  and  _294
REMARK  118  A    between atoms: _300  and  _302
REMARK  119  A    between atoms: _302  and  _303
REMARK  120  A    between atoms: _305  and  _307
REMARK  121  A    between atoms: _307  and  _308
REMARK  122  A    between atoms: _307  and  _310
REMARK  123  A    between atoms: _310  and  _311
REMARK  124  A    between atoms: _311  and  _312
REMARK  125  A    between atoms: _315  and  _317
REMARK  126  A    between atoms: _317  and  _318
REMARK  127  A    between atoms: _317  and  _320
REMARK  128  A    between atoms: _320  and  _321
REMARK  129  A    between atoms: _321  and  _322
REMARK  130  A    between atoms: _322  and  _323
REMARK  131  A    between atoms: _323  and  _324
REMARK  132  A    between atoms: _328  and  _330
REMARK  133  A    between atoms: _330  and  _331
REMARK  134  A    between atoms: _330  and  _333
REMARK  135  A    between atoms: _333  and  _334
REMARK  136  A    between atoms: _337  and  _339
REMARK  137  A    between atoms: _339  and  _340
REMARK  138  A    between atoms: _339  and  _342
REMARK  139  A    between atoms: _342  and  _343
REMARK  140  A    between atoms: _343  and  _344
REMARK  141  A    between atoms: _349  and  _351
REMARK  142  A    between atoms: _351  and  _352
REMARK  143  A    between atoms: _351  and  _354
REMARK  144  A    between atoms: _354  and  _355
REMARK  145  A    between atoms: _358  and  _360
REMARK  146  A    between atoms: _360  and  _361
REMARK  147  A    between atoms: _363  and  _365
REMARK  148  A    between atoms: _365  and  _366
REMARK  149  A    between atoms: _365  and  _368
REMARK  150  A    between atoms: _372  and  _373
REMARK  151  A    between atoms: _378  and  _380
REMARK  152  A    between atoms: _380  and  _381
REMARK  153  A    between atoms: _380  and  _383
REMARK  154  A    between atoms: _383  and  _384
REMARK  155  A    between atoms: _387  and  _389
REMARK  156  A    between atoms: _389  and  _390
REMARK  157  A    between atoms: _389  and  _392
REMARK  158  A    between atoms: _395  and  _397
REMARK  159  A    between atoms: _397  and  _398
REMARK  160  A    between atoms: _397  and  _400
REMARK  161  A    between atoms: _400  and  _401
REMARK  162  A    between atoms: _401  and  _402
REMARK  163  A    between atoms: _402  and  _403
REMARK  164  A    between atoms: _412  and  _414
REMARK  165  A    between atoms: _414  and  _415
REMARK  166  A    between atoms: _414  and  _417
REMARK  167  A    between atoms: _417  and  _418
REMARK  168  A    between atoms: _421  and  _423
REMARK  169  A    between atoms: _423  and  _424
REMARK  170  A    between atoms: _427  and  _429
REMARK  171  A    between atoms: _429  and  _430
REMARK  172  A    between atoms: _429  and  _432
REMARK  173  A    between atoms: _432  and  _433
REMARK  174  A    between atoms: _433  and  _434
REMARK  175  A    between atoms: _436  and  _438
REMARK  176  A    between atoms: _438  and  _439
REMARK  177  A    between atoms: _438  and  _441
REMARK  178  A    between atoms: _441  and  _442
REMARK  179  A    between atoms: _444  and  _446
REMARK  180  A    between atoms: _446  and  _447
REMARK  181  A    between atoms: _446  and  _449
REMARK  182  A    between atoms: _449  and  _450
REMARK  183  A    between atoms: _452  and  _454
REMARK  184  A    between atoms: _454  and  _455
REMARK  185  A    between atoms: _454  and  _457
REMARK  186  A    between atoms: _457  and  _458
REMARK  187  A    between atoms: _458  and  _459
REMARK  188  A    between atoms: _459  and  _460
REMARK  189  A    between atoms: _469  and  _471
REMARK  190  A    between atoms: _471  and  _472
REMARK  191  A    between atoms: _471  and  _474
REMARK  192  A    between atoms: _474  and  _475
REMARK  193  A    between atoms: _480  and  _482
REMARK  194  A    between atoms: _482  and  _483
REMARK  195  A    between atoms: _482  and  _485
REMARK  196  A    between atoms: _485  and  _486
REMARK  197  A    between atoms: _486  and  _487
REMARK  198  A    between atoms: _487  and  _488
REMARK  199  A    between atoms: _497  and  _499
REMARK  200  A    between atoms: _499  and  _500
REMARK  201  A    between atoms: _499  and  _502
REMARK  202  A    between atoms: _502  and  _503
REMARK  203  A    between atoms: _503  and  _504
REMARK  204  A    between atoms: _504  and  _505
REMARK  205  A    between atoms: _514  and  _516
REMARK  206  A    between atoms: _516  and  _517
REMARK  207  A    between atoms: _516  and  _519
REMARK  208  A    between atoms: _519  and  _520
REMARK  209  A    between atoms: _523  and  _525
REMARK  210  A    between atoms: _525  and  _526
REMARK  211  A    between atoms: _525  and  _528
REMARK  212  A    between atoms: _528  and  _529
REMARK                            x       y       z     vdW  Elec       q    Type
REMARK                         _______ _______ _______ _____ _____    ______ ____
ROOT
ATOM      1  C   HIS A   1      21.028   2.702  11.566  0.00  0.00    +0.239 C 
ATOM      2  O   HIS A   1      20.232   3.634  11.750  0.00  0.00    -0.274 OA
ATOM      3  N   PHE A   2      20.662   1.476  11.182  0.00  0.00    -0.298 N 
ATOM      4  H   PHE A   2      21.386   0.748  11.017  0.00  0.00    +0.150 HD
ENDROOT
BRANCH   1   5
ATOM      5  CA  HIS A   1      22.525   2.944  11.682  0.00  0.00    +0.151 C 
BRANCH   5   6
ATOM      6  N   HIS A   1      23.192   1.921  12.497  0.00  0.00    -0.238 NA
ATOM      7  H   HIS A   1      23.935   1.332  12.070  0.00  0.00    +0.142 HD
ENDBRANCH   5   6
BRANCH   5   8
ATOM      8  CB  HIS A   1      23.147   3.099  10.270  0.00  0.00    +0.074 C 
BRANCH   8   9
ATOM      9  CG  HIS A   1      22.352   3.984   9.354  0.00  0.00    +0.082 A 
ATOM     10  ND1 HIS A   1      22.410   5.357   9.401  0.00  0.00    -0.227 NA
ATOM     11  CE1 HIS A   1      21.604   5.866   8.493  0.00  0.00    +0.199 A 
ATOM     12  NE2 HIS A   1      20.999   4.873   7.872  0.00  0.00    -0.221 NA
ATOM     13  CD2 HIS A   1      21.461   3.686   8.380  0.00  0.00    +0.115 A 
ENDBRANCH   8   9
ENDBRANCH   5   8
ENDBRANCH   1   5
BRANCH   3  14
ATOM     14  CA  PHE A   2      19.267   1.158  10.995  0.00  0.00    +0.141 C 
BRANCH  14  15
ATOM     15  C   PHE A   2      18.479   1.145  12.273  0.00  0.00    +0.227 C 
ATOM     16  O   PHE A   2      17.278   1.300  12.242  0.00  0.00    -0.286 OA
ENDBRANCH  14  15
BRANCH  14  17
ATOM     17  CB  PHE A   2      19.079  -0.113  10.188  0.00  0.00    +0.054 C 
BRANCH  17  18
ATOM     18  CG  PHE A   2      19.406   0.073   8.745  0.00  0.00    -0.020 A 
ATOM     19  CD2 PHE A   2      20.490  -0.582   8.172  0.00  0.00    -0.004 A 
ATOM     20  CE2 PHE A   2      20.788  -0.406   6.809  0.00  0.00    -0.000 A 
ATOM     21  CZ  PHE A   2      20.040   0.480   6.053  0.00  0.00    -0.000 A 
ATOM     22  CE1 PHE A   2      18.969   1.166   6.632  0.00  0.00    -0.000 A 
ATOM     23  CD1 PHE A   2      18.663   0.962   7.972  0.00  0.00    -0.004 A 
ENDBRANCH  17  18
ENDBRANCH  14  17
ENDBRANCH   3  14
TORSDOF 8
REMARK  Name = ../refined-set-2016/3ivc/3ivc_pocket.pdb
REMARK  212 active torsions:
REMARK  status: ('A' for Active; 'I' for Inactive)
REMARK    1  A    between atoms: _1  and  _3
REMARK    2  A    between atoms: _3  and  _4
REMARK    3  A    between atoms: _3  and  _6
REMARK    4  A    between atoms: _10  and  _11
REMARK    5  A    between atoms: _16  and  _18
REMARK    6  A    between atoms: _18  and  _19
REMARK    7  A    between atoms: _18  and  _21
REMARK    8  A    between atoms: _21  and  _22
REMARK    9  A    between atoms: _25  and  _27
REMARK   10  A    between atoms: _27  and  _28
REMARK   11  A    between atoms: _27  and  _30
REMARK   12  A    between atoms: _30  and  _31
REMARK   13  A    between atoms: _31  and  _32
REMARK   14  A    between atoms: _34  and  _36
REMARK   15  A    between atoms: _36  and  _37
REMARK   16  A    between atoms: _39  and  _41
REMARK   17  A    between atoms: _41  and  _42
REMARK   18  A    between atoms: _45  and  _47
REMARK   19  A    between atoms: _47  and  _48
REMARK   20  A    between atoms: _47  and  _50
REMARK   21  A    between atoms: _50  and  _51
REMARK   22  A    between atoms: _54  and  _56
REMARK   23  A    between atoms: _56  and  _57
REMARK   24  A    between atoms: _56  and  _59
REMARK   25  A    between atoms: _59  and  _60
REMARK   26  A    between atoms: _65  and  _67
REMARK   27  A    between atoms: _67  and  _68
REMARK   28  A    between atoms: _67  and  _70
REMARK   29  A    between atoms: _70  and  _71
REMARK   30  A    between atoms: _71  and  _72
REMARK   31  A    between atoms: _75  and  _77
REMARK   32  A    between atoms: _77  and  _78
REMARK   33  A    between atoms: _80  and  _82
REMARK   34  A    between atoms: _82  and  _83
REMARK   35  A    between atoms: _82  and  _85
REMARK   36  A    between atoms: _85  and  _86
REMARK   37  A    between atoms: _91  and  _93
REMARK   38  A    between atoms: _93  and  _94
REMARK   39  A    between atoms: _93  and  _96
REMARK   40  A    between atoms: _96  and  _97
REMARK   41  A    between atoms: _100  and  _102
REMARK   42  A    between atoms: _102  and  _103
REMARK   43  A    between atoms: _106  and  _108
REMARK   44  A    between atoms: _108  and  _109
REMARK   45  A    between atoms: _108  and  _111
REMARK   46  A    between atoms: _111  and  _112
REMARK   47  A    between atoms: _115  and  _117
REMARK   48  A    between atoms: _117  and  _118
REMARK   49  A    between atoms: _117  and  _120
REMARK   50  A    between atoms: _123  and  _125
REMARK   51  A    between atoms: _125  and  _126
REMARK   52  A    between atoms: _125  and  _128
REMARK   53  A    between atoms: _128  and  _129
REMARK   54  A    between atoms: _131  and  _133
REMARK   55  A    between atoms: _133  and  _134
REMARK   56  A    between atoms: _133  and  _136
REMARK   57  A    between atoms: _136  and  _137
REMARK   58  A    between atoms: _140  and  _142
REMARK   59  A    between atoms: _142  and  _143
REMARK   60  A    between atoms: _142  and  _145
REMARK   61  A    between atoms: _145  and  _146
REMARK   62  A    between atoms: _152  and  _154
REMARK   63  A    between atoms: _154  and  _155
REMARK   64  A    between atoms: _154  and  _157
REMARK   65  A    between atoms: _157  and  _158
REMARK   66  A    between atoms: _163  and  _165
REMARK   67  A    between atoms: _165  and  _166
REMARK   68  A    between atoms: _165  and  _168
REMARK   69  A    between atoms: _168  and  _169
REMARK   70  A    between atoms: _169  and  _170
REMARK   71  A    between atoms: _175  and  _177
REMARK   72  A    between atoms: _177  and  _178
REMARK   73  A    between atoms: _177  and  _180
REMARK   74  A    between atoms: _180  and  _181
REMARK   75  A    between atoms: _186  and  _187
REMARK   76  A    between atoms: _189  and  _191
REMARK   77  A    between atoms: _191  and  _192
REMARK   78  A    between atoms: _191  and  _194
REMARK   79  A    between atoms: _194  and  _195
REMARK   80  A    between atoms: _200  and  _202
REMARK   81  A    between atoms: _202  and  _203
REMARK   82  A    between atoms: _202  and  _205
REMARK   83  A    between atoms: _205  and  _206
REMARK   84  A    between atoms: _212  and  _214
REMARK   85  A    between atoms: _214  and  _215
REMARK   86  A    between atoms: _217  and  _219
REMARK   87  A    between atoms: _219  and  _220
REMARK   88  A    between atoms: _219  and  _222
REMARK   89  A    between atoms: _225  and  _227
REMARK   90  A    between atoms: _227  and  _228
REMARK   91  A    between atoms: _227  and  _230
REMARK   92  A    between atoms: _230  and  _231
REMARK   93  A    between atoms: _234  and  _236
REMARK   94  A    between atoms: _236  and  _237
REMARK   95  A    between atoms: _236  and  _239
REMARK   96  A    between atoms: _242  and  _244
REMARK   97  A    between atoms: _244  and  _245
REMARK   98  A    between atoms: _244  and  _247
REMARK   99  A    between atoms: _250  and  _252
REMARK  100  A    between atoms: _252  and  _253
REMARK  101  A    between atoms: _252  and  _255
REMARK  102  A    between atoms: _255  and  _256
REMARK  103  A    between atoms: _259  and  _261
REMARK  104  A    between atoms: _261  and  _262
REMARK  105  A    between atoms: _261  and  _264
REMARK  106  A    between atoms: _264  and  _265
REMARK  107  A    between atoms: _268  and  _270
REMARK  108  A    between atoms: _270  and  _271
REMARK  109  A    between atoms: _270  and  _273
REMARK  110  A    between atoms: _276  and  _278
REMARK  111  A    between atoms: _278  and  _279
REMARK  112  A    between atoms: _278  and  _281
REMARK  113  A    between atoms: _281  and  _282
REMARK  114  A    between atoms: _288  and  _290
REMARK  115  A    between atoms: _290  and  _291
REMARK  116  A    between atoms: _290  and  _293
REMARK  117  A    between atoms: _293  and  _294
REMARK  118  A    between atoms: _300  and  _302
REMARK  119  A    between atoms: _302  and  _303
REMARK  120  A    between atoms: _305  and  _307
REMARK  121  A    between atoms: _307  and  _308
REMARK  122  A    between atoms: _307  and  _310
REMARK  123  A    between atoms: _310  and  _311
REMARK  124  A    between atoms: _311  and  _312
REMARK  125  A    between atoms: _315  and  _317
REMARK  126  A    between atoms: _317  and  _318
REMARK  127  A    between atoms: _317  and  _320
REMARK  128  A    between atoms: _320  and  _321
REMARK  129  A    between atoms: _321  and  _322
REMARK  130  A    between atoms: _322  and  _323
REMARK  131  A    between atoms: _323  and  _324
REMARK  132  A    between atoms: _328  and  _330
REMARK  133  A    between atoms: _330  and  _331
REMARK  134  A    between atoms: _330  and  _333
REMARK  135  A    between atoms: _333  and  _334
REMARK  136  A    between atoms: _337  and  _339
REMARK  137  A    between atoms: _339  and  _340
REMARK  138  A    between atoms: _339  and  _342
REMARK  139  A    between atoms: _342  and  _343
REMARK  140  A    between atoms: _343  and  _344
REMARK  141  A    between atoms: _349  and  _351
REMARK  142  A    between atoms: _351  and  _352
REMARK  143  A    between atoms: _351  and  _354
REMARK  144  A    between atoms: _354  and  _355
REMARK  145  A    between atoms: _358  and  _360
REMARK  146  A    between atoms: _360  and  _361
REMARK  147  A    between atoms: _363  and  _365
REMARK  148  A    between atoms: _365  and  _366
REMARK  149  A    between atoms: _365  and  _368
REMARK  150  A    between atoms: _372  and  _373
REMARK  151  A    between atoms: _378  and  _380
REMARK  152  A    between atoms: _380  and  _381
REMARK  153  A    between atoms: _380  and  _383
REMARK  154  A    between atoms: _383  and  _384
REMARK  155  A    between atoms: _387  and  _389
REMARK  156  A    between atoms: _389  and  _390
REMARK  157  A    between atoms: _389  and  _392
REMARK  158  A    between atoms: _395  and  _397
REMARK  159  A    between atoms: _397  and  _398
REMARK  160  A    between atoms: _397  and  _400
REMARK  161  A    between atoms: _400  and  _401
REMARK  162  A    between atoms: _401  and  _402
REMARK  163  A    between atoms: _402  and  _403
REMARK  164  A    between atoms: _412  and  _414
REMARK  165  A    between atoms: _414  and  _415
REMARK  166  A    between atoms: _414  and  _417
REMARK  167  A    between atoms: _417  and  _418
REMARK  168  A    between atoms: _421  and  _423
REMARK  169  A    between atoms: _423  and  _424
REMARK  170  A    between atoms: _427  and  _429
REMARK  171  A    between atoms: _429  and  _430
REMARK  172  A    between atoms: _429  and  _432
REMARK  173  A    between atoms: _432  and  _433
REMARK  174  A    between atoms: _433  and  _434
REMARK  175  A    between atoms: _436  and  _438
REMARK  176  A    between atoms: _438  and  _439
REMARK  177  A    between atoms: _438  and  _441
REMARK  178  A    between atoms: _441  and  _442
REMARK  179  A    between atoms: _444  and  _446
REMARK  180  A    between atoms: _446  and  _447
REMARK  181  A    between atoms: _446  and  _449
REMARK  182  A    between atoms: _449  and  _450
REMARK  183  A    between atoms: _452  and  _454
REMARK  184  A    between atoms: _454  and  _455
REMARK  185  A    between atoms: _454  and  _457
REMARK  186  A    between atoms: _457  and  _458
REMARK  187  A    between atoms: _458  and  _459
REMARK  188  A    between atoms: _459  and  _460
REMARK  189  A    between atoms: _469  and  _471
REMARK  190  A    between atoms: _471  and  _472
REMARK  191  A    between atoms: _471  and  _474
REMARK  192  A    between atoms: _474  and  _475
REMARK  193  A    between atoms: _480  and  _482
REMARK  194  A    between atoms: _482  and  _483
REMARK  195  A    between atoms: _482  and  _485
REMARK  196  A    between atoms: _485  and  _486
REMARK  197  A    between atoms: _486  and  _487
REMARK  198  A    between atoms: _487  and  _488
REMARK  199  A    between atoms: _497  and  _499
REMARK  200  A    between atoms: _499  and  _500
REMARK  201  A    between atoms: _499  and  _502
REMARK  202  A    between atoms: _502  and  _503
REMARK  203  A    between atoms: _503  and  _504
REMARK  204  A    between atoms: _504  and  _505
REMARK  205  A    between atoms: _514  and  _516
REMARK  206  A    between atoms: _516  and  _517
REMARK  207  A    between atoms: _516  and  _519
REMARK  208  A    between atoms: _519  and  _520
REMARK  209  A    between atoms: _523  and  _525
REMARK  210  A    between atoms: _525  and  _526
REMARK  211  A    between atoms: _525  and  _528
REMARK  212  A    between atoms: _528  and  _529
REMARK                            x       y       z     vdW  Elec       q    Type
REMARK                         _______ _______ _______ _____ _____    ______ ____
ROOT
ATOM      1  CA  VAL A   2      16.318   4.915  11.404  0.00  0.00    +0.148 C 
ENDROOT
BRANCH   1   4
ATOM      2  C   GLY A   1      17.381   5.156  13.573  0.00  0.00    +0.240 C 
ATOM      3  O   GLY A   1      16.476   5.855  13.957  0.00  0.00    -0.274 OA
ATOM      4  N   VAL A   2      17.420   4.663  12.337  0.00  0.00    -0.297 N 
ATOM      5  H   VAL A   2      18.237   4.096  12.032  0.00  0.00    +0.150 HD
BRANCH   2   6
ATOM      6  CA  GLY A   1      18.488   4.786  14.525  0.00  0.00    +0.169 C 
BRANCH   6   7
ATOM      7  N   GLY A   1      18.746   3.370  14.369  0.00  0.00    -0.236 NA
ATOM      8  H   GLY A   1      19.582   3.077  13.823  0.00  0.00    +0.142 HD
ENDBRANCH   6   7
ENDBRANCH   2   6
ENDBRANCH   1   4
BRANCH   1   9
ATOM      9  C   VAL A   2      15.016   4.361  11.997  0.00  0.00    +0.241 C 
ATOM     10  N   LEU A   3      15.009   3.113  12.504  0.00  0.00    -0.298 N 
ATOM     11  H   LEU A   3      15.911   2.624  12.673  0.00  0.00    +0.150 HD
ATOM     12  O   VAL A   2      14.076   5.104  12.101  0.00  0.00    -0.273 OA
BRANCH  10  13
ATOM     13  CA  LEU A   3      13.756   2.438  12.819  0.00  0.00    +0.137 C 
BRANCH  13  14
ATOM     14  C   LEU A   3      13.193   2.997  14.105  0.00  0.00    +0.227 C 
ATOM     15  O   LEU A   3      11.973   3.063  14.270  0.00  0.00    -0.286 OA
ENDBRANCH  13  14
BRANCH  13  16
ATOM     16  CB  LEU A   3      13.935   0.922  12.950  0.00  0.00    +0.028 C 
BRANCH  16  17
ATOM     17  CG  LEU A   3      14.313   0.108  11.710  0.00  0.00    +0.002 C 
ATOM     18  CD2 LEU A   3      13.987  -1.339  11.983  0.00  0.00    +0.000 C 
ATOM     19  CD1 LEU A   3      13.590   0.586  10.447  0.00  0.00    +0.000 C 
ENDBRANCH  16  17
ENDBRANCH  13  16
ENDBRANCH  10  13
ENDBRANCH   1   9
BRANCH   1  20
ATOM     20  CB  VAL A   2      16.602   4.307  10.006  0.00  0.00    +0.027 C 
ATOM     21  CG2 VAL A   2      17.926   4.908   9.435  0.00  0.00    +0.002 C 
ATOM     22  CG1 VAL A   2      15.437   4.540   9.033  0.00  0.00    +0.002 C 
ENDBRANCH   1  20
TORSDOF 9
REMARK  Name = ../refined-set-2016/3ivc/3ivc_pocket.pdb
REMARK  212 active torsions:
REMARK  status: ('A' for Active; 'I' for Inactive)
REMARK    1  A    between atoms: _1  and  _3
REMARK    2  A    between atoms: _3  and  _4
REMARK    3  A    between atoms: _3  and  _6
REMARK    4  A    between atoms: _10  and  _11
REMARK    5  A    between atoms: _16  and  _18
REMARK    6  A    between atoms: _18  and  _19
REMARK    7  A    between atoms: _18  and  _21
REMARK    8  A    between atoms: _21  and  _22
REMARK    9  A    between atoms: _25  and  _27
REMARK   10  A    between atoms: _27  and  _28
REMARK   11  A    between atoms: _27  and  _30
REMARK   12  A    between atoms: _30  and  _31
REMARK   13  A    between atoms: _31  and  _32
REMARK   14  A    between atoms: _34  and  _36
REMARK   15  A    between atoms: _36  and  _37
REMARK   16  A    between atoms: _39  and  _41
REMARK   17  A    between atoms: _41  and  _42
REMARK   18  A    between atoms: _45  and  _47
REMARK   19  A    between atoms: _47  and  _48
REMARK   20  A    between atoms: _47  and  _50
REMARK   21  A    between atoms: _50  and  _51
REMARK   22  A    between atoms: _54  and  _56
REMARK   23  A    between atoms: _56  and  _57
REMARK   24  A    between atoms: _56  and  _59
REMARK   25  A    between atoms: _59  and  _60
REMARK   26  A    between atoms: _65  and  _67
REMARK   27  A    between atoms: _67  and  _68
REMARK   28  A    between atoms: _67  and  _70
REMARK   29  A    between atoms: _70  and  _71
REMARK   30  A    between atoms: _71  and  _72
REMARK   31  A    between atoms: _75  and  _77
REMARK   32  A    between atoms: _77  and  _78
REMARK   33  A    between atoms: _80  and  _82
REMARK   34  A    between atoms: _82  and  _83
REMARK   35  A    between atoms: _82  and  _85
REMARK   36  A    between atoms: _85  and  _86
REMARK   37  A    between atoms: _91  and  _93
REMARK   38  A    between atoms: _93  and  _94
REMARK   39  A    between atoms: _93  and  _96
REMARK   40  A    between atoms: _96  and  _97
REMARK   41  A    between atoms: _100  and  _102
REMARK   42  A    between atoms: _102  and  _103
REMARK   43  A    between atoms: _106  and  _108
REMARK   44  A    between atoms: _108  and  _109
REMARK   45  A    between atoms: _108  and  _111
REMARK   46  A    between atoms: _111  and  _112
REMARK   47  A    between atoms: _115  and  _117
REMARK   48  A    between atoms: _117  and  _118
REMARK   49  A    between atoms: _117  and  _120
REMARK   50  A    between atoms: _123  and  _125
REMARK   51  A    between atoms: _125  and  _126
REMARK   52  A    between atoms: _125  and  _128
REMARK   53  A    between atoms: _128  and  _129
REMARK   54  A    between atoms: _131  and  _133
REMARK   55  A    between atoms: _133  and  _134
REMARK   56  A    between atoms: _133  and  _136
REMARK   57  A    between atoms: _136  and  _137
REMARK   58  A    between atoms: _140  and  _142
REMARK   59  A    between atoms: _142  and  _143
REMARK   60  A    between atoms: _142  and  _145
REMARK   61  A    between atoms: _145  and  _146
REMARK   62  A    between atoms: _152  and  _154
REMARK   63  A    between atoms: _154  and  _155
REMARK   64  A    between atoms: _154  and  _157
REMARK   65  A    between atoms: _157  and  _158
REMARK   66  A    between atoms: _163  and  _165
REMARK   67  A    between atoms: _165  and  _166
REMARK   68  A    between atoms: _165  and  _168
REMARK   69  A    between atoms: _168  and  _169
REMARK   70  A    between atoms: _169  and  _170
REMARK   71  A    between atoms: _175  and  _177
REMARK   72  A    between atoms: _177  and  _178
REMARK   73  A    between atoms: _177  and  _180
REMARK   74  A    between atoms: _180  and  _181
REMARK   75  A    between atoms: _186  and  _187
REMARK   76  A    between atoms: _189  and  _191
REMARK   77  A    between atoms: _191  and  _192
REMARK   78  A    between atoms: _191  and  _194
REMARK   79  A    between atoms: _194  and  _195
REMARK   80  A    between atoms: _200  and  _202
REMARK   81  A    between atoms: _202  and  _203
REMARK   82  A    between atoms: _202  and  _205
REMARK   83  A    between atoms: _205  and  _206
REMARK   84  A    between atoms: _212  and  _214
REMARK   85  A    between atoms: _214  and  _215
REMARK   86  A    between atoms: _217  and  _219
REMARK   87  A    between atoms: _219  and  _220
REMARK   88  A    between atoms: _219  and  _222
REMARK   89  A    between atoms: _225  and  _227
REMARK   90  A    between atoms: _227  and  _228
REMARK   91  A    between atoms: _227  and  _230
REMARK   92  A    between atoms: _230  and  _231
REMARK   93  A    between atoms: _234  and  _236
REMARK   94  A    between atoms: _236  and  _237
REMARK   95  A    between atoms: _236  and  _239
REMARK   96  A    between atoms: _242  and  _244
REMARK   97  A    between atoms: _244  and  _245
REMARK   98  A    between atoms: _244  and  _247
REMARK   99  A    between atoms: _250  and  _252
REMARK  100  A    between atoms: _252  and  _253
REMARK  101  A    between atoms: _252  and  _255
REMARK  102  A    between atoms: _255  and  _256
REMARK  103  A    between atoms: _259  and  _261
REMARK  104  A    between atoms: _261  and  _262
REMARK  105  A    between atoms: _261  and  _264
REMARK  106  A    between atoms: _264  and  _265
REMARK  107  A    between atoms: _268  and  _270
REMARK  108  A    between atoms: _270  and  _271
REMARK  109  A    between atoms: _270  and  _273
REMARK  110  A    between atoms: _276  and  _278
REMARK  111  A    between atoms: _278  and  _279
REMARK  112  A    between atoms: _278  and  _281
REMARK  113  A    between atoms: _281  and  _282
REMARK  114  A    between atoms: _288  and  _290
REMARK  115  A    between atoms: _290  and  _291
REMARK  116  A    between atoms: _290  and  _293
REMARK  117  A    between atoms: _293  and  _294
REMARK  118  A    between atoms: _300  and  _302
REMARK  119  A    between atoms: _302  and  _303
REMARK  120  A    between atoms: _305  and  _307
REMARK  121  A    between atoms: _307  and  _308
REMARK  122  A    between atoms: _307  and  _310
REMARK  123  A    between atoms: _310  and  _311
REMARK  124  A    between atoms: _311  and  _312
REMARK  125  A    between atoms: _315  and  _317
REMARK  126  A    between atoms: _317  and  _318
REMARK  127  A    between atoms: _317  and  _320
REMARK  128  A    between atoms: _320  and  _321
REMARK  129  A    between atoms: _321  and  _322
REMARK  130  A    between atoms: _322  and  _323
REMARK  131  A    between atoms: _323  and  _324
REMARK  132  A    between atoms: _328  and  _330
REMARK  133  A    between atoms: _330  and  _331
REMARK  134  A    between atoms: _330  and  _333
REMARK  135  A    between atoms: _333  and  _334
REMARK  136  A    between atoms: _337  and  _339
REMARK  137  A    between atoms: _339  and  _340
REMARK  138  A    between atoms: _339  and  _342
REMARK  139  A    between atoms: _342  and  _343
REMARK  140  A    between atoms: _343  and  _344
REMARK  141  A    between atoms: _349  and  _351
REMARK  142  A    between atoms: _351  and  _352
REMARK  143  A    between atoms: _351  and  _354
REMARK  144  A    between atoms: _354  and  _355
REMARK  145  A    between atoms: _358  and  _360
REMARK  146  A    between atoms: _360  and  _361
REMARK  147  A    between atoms: _363  and  _365
REMARK  148  A    between atoms: _365  and  _366
REMARK  149  A    between atoms: _365  and  _368
REMARK  150  A    between atoms: _372  and  _373
REMARK  151  A    between atoms: _378  and  _380
REMARK  152  A    between atoms: _380  and  _381
REMARK  153  A    between atoms: _380  and  _383
REMARK  154  A    between atoms: _383  and  _384
REMARK  155  A    between atoms: _387  and  _389
REMARK  156  A    between atoms: _389  and  _390
REMARK  157  A    between atoms: _389  and  _392
REMARK  158  A    between atoms: _395  and  _397
REMARK  159  A    between atoms: _397  and  _398
REMARK  160  A    between atoms: _397  and  _400
REMARK  161  A    between atoms: _400  and  _401
REMARK  162  A    between atoms: _401  and  _402
REMARK  163  A    between atoms: _402  and  _403
REMARK  164  A    between atoms: _412  and  _414
REMARK  165  A    between atoms: _414  and  _415
REMARK  166  A    between atoms: _414  and  _417
REMARK  167  A    between atoms: _417  and  _418
REMARK  168  A    between atoms: _421  and  _423
REMARK  169  A    between atoms: _423  and  _424
REMARK  170  A    between atoms: _427  and  _429
REMARK  171  A    between atoms: _429  and  _430
REMARK  172  A    between atoms: _429  and  _432
REMARK  173  A    between atoms: _432  and  _433
REMARK  174  A    between atoms: _433  and  _434
REMARK  175  A    between atoms: _436  and  _438
REMARK  176  A    between atoms: _438  and  _439
REMARK  177  A    between atoms: _438  and  _441
REMARK  178  A    between atoms: _441  and  _442
REMARK  179  A    between atoms: _444  and  _446
REMARK  180  A    between atoms: _446  and  _447
REMARK  181  A    between atoms: _446  and  _449
REMARK  182  A    between atoms: _449  and  _450
REMARK  183  A    between atoms: _452  and  _454
REMARK  184  A    between atoms: _454  and  _455
REMARK  185  A    between atoms: _454  and  _457
REMARK  186  A    between atoms: _457  and  _458
REMARK  187  A    between atoms: _458  and  _459
REMARK  188  A    between atoms: _459  and  _460
REMARK  189  A    between atoms: _469  and  _471
REMARK  190  A    between atoms: _471  and  _472
REMARK  191  A    between atoms: _471  and  _474
REMARK  192  A    between atoms: _474  and  _475
REMARK  193  A    between atoms: _480  and  _482
REMARK  194  A    between atoms: _482  and  _483
REMARK  195  A    between atoms: _482  and  _485
REMARK  196  A    between atoms: _485  and  _486
REMARK  197  A    between atoms: _486  and  _487
REMARK  198  A    between atoms: _487  and  _488
REMARK  199  A    between atoms: _497  and  _499
REMARK  200  A    between atoms: _499  and  _500
REMARK  201  A    between atoms: _499  and  _502
REMARK  202  A    between atoms: _502  and  _503
REMARK  203  A    between atoms: _503  and  _504
REMARK  204  A    between atoms: _504  and  _505
REMARK  205  A    between atoms: _514  and  _516
REMARK  206  A    between atoms: _516  and  _517
REMARK  207  A    between atoms: _516  and  _519
REMARK  208  A    between atoms: _519  and  _520
REMARK  209  A    between atoms: _523  and  _525
REMARK  210  A    between atoms: _525  and  _526
REMARK  211  A    between atoms: _525  and  _528
REMARK  212  A    between atoms: _528  and  _529
REMARK                            x       y       z     vdW  Elec       q    Type
REMARK                         _______ _______ _______ _____ _____    ______ ____
ROOT
ATOM      1  CA  VAL A   2      10.472   6.174  12.203  0.00  0.00    +0.148 C 
ENDROOT
BRANCH   1   4
ATOM      2  C   VAL A   1      11.634   7.336  13.993  0.00  0.00    +0.238 C 
ATOM      3  O   VAL A   1      10.597   8.035  14.196  0.00  0.00    -0.274 OA
ATOM      4  N   VAL A   2      11.675   6.385  13.044  0.00  0.00    -0.297 N 
ATOM      5  H   VAL A   2      12.530   5.811  12.903  0.00  0.00    +0.150 HD
BRANCH   2   6
ATOM      6  CA  VAL A   1      12.918   7.572  14.815  0.00  0.00    +0.145 C 
BRANCH   6   7
ATOM      7  CB  VAL A   1      13.881   8.581  14.121  0.00  0.00    +0.025 C 
ATOM      8  CG2 VAL A   1      13.383  10.062  14.290  0.00  0.00    +0.002 C 
ATOM      9  CG1 VAL A   1      14.071   8.246  12.604  0.00  0.00    +0.002 C 
ENDBRANCH   6   7
BRANCH   6  10
ATOM     10  N   VAL A   1      13.578   6.285  15.069  0.00  0.00    -0.238 NA
ATOM     11  H   VAL A   1      14.488   6.047  14.624  0.00  0.00    +0.142 HD
ENDBRANCH   6  10
ENDBRANCH   2   6
ENDBRANCH   1   4
BRANCH   1  12
ATOM     12  C   VAL A   2       9.290   5.643  13.049  0.00  0.00    +0.241 C 
ATOM     13  N   LEU A   3       9.521   4.654  13.930  0.00  0.00    -0.298 N 
ATOM     14  H   LEU A   3      10.446   4.179  13.918  0.00  0.00    +0.150 HD
ATOM     15  O   VAL A   2       8.189   6.120  12.874  0.00  0.00    -0.273 OA
BRANCH  13  16
ATOM     16  CA  LEU A   3       8.501   4.213  14.922  0.00  0.00    +0.137 C 
BRANCH  16  17
ATOM     17  C   LEU A   3       7.953   5.432  15.672  0.00  0.00    +0.227 C 
ATOM     18  O   LEU A   3       6.754   5.606  15.793  0.00  0.00    -0.286 OA
ENDBRANCH  16  17
BRANCH  16  19
ATOM     19  CB  LEU A   3       9.066   3.201  15.949  0.00  0.00    +0.028 C 
BRANCH  19  20
ATOM     20  CG  LEU A   3       8.085   2.581  16.966  0.00  0.00    +0.002 C 
ATOM     21  CD2 LEU A   3       8.760   1.578  17.947  0.00  0.00    +0.000 C 
ATOM     22  CD1 LEU A   3       6.908   1.909  16.262  0.00  0.00    +0.000 C 
ENDBRANCH  19  20
ENDBRANCH  16  19
ENDBRANCH  13  16
ENDBRANCH   1  12
BRANCH   1  23
ATOM     23  CB  VAL A   2      10.730   5.227  10.933  0.00  0.00    +0.027 C 
ATOM     24  CG2 VAL A   2       9.381   4.788  10.345  0.00  0.00    +0.002 C 
ATOM     25  CG1 VAL A   2      11.555   6.023   9.861  0.00  0.00    +0.002 C 
ENDBRANCH   1  23
TORSDOF 10
REMARK  Name = ../refined-set-2016/3ivc/3ivc_pocket.pdb
REMARK  212 active torsions:
REMARK  status: ('A' for Active; 'I' for Inactive)
REMARK    1  A    between atoms: _1  and  _3
REMARK    2  A    between atoms: _3  and  _4
REMARK    3  A    between atoms: _3  and  _6
REMARK    4  A    between atoms: _10  and  _11
REMARK    5  A    between atoms: _16  and  _18
REMARK    6  A    between atoms: _18  and  _19
REMARK    7  A    between atoms: _18  and  _21
REMARK    8  A    between atoms: _21  and  _22
REMARK    9  A    between atoms: _25  and  _27
REMARK   10  A    between atoms: _27  and  _28
REMARK   11  A    between atoms: _27  and  _30
REMARK   12  A    between atoms: _30  and  _31
REMARK   13  A    between atoms: _31  and  _32
REMARK   14  A    between atoms: _34  and  _36
REMARK   15  A    between atoms: _36  and  _37
REMARK   16  A    between atoms: _39  and  _41
REMARK   17  A    between atoms: _41  and  _42
REMARK   18  A    between atoms: _45  and  _47
REMARK   19  A    between atoms: _47  and  _48
REMARK   20  A    between atoms: _47  and  _50
REMARK   21  A    between atoms: _50  and  _51
REMARK   22  A    between atoms: _54  and  _56
REMARK   23  A    between atoms: _56  and  _57
REMARK   24  A    between atoms: _56  and  _59
REMARK   25  A    between atoms: _59  and  _60
REMARK   26  A    between atoms: _65  and  _67
REMARK   27  A    between atoms: _67  and  _68
REMARK   28  A    between atoms: _67  and  _70
REMARK   29  A    between atoms: _70  and  _71
REMARK   30  A    between atoms: _71  and  _72
REMARK   31  A    between atoms: _75  and  _77
REMARK   32  A    between atoms: _77  and  _78
REMARK   33  A    between atoms: _80  and  _82
REMARK   34  A    between atoms: _82  and  _83
REMARK   35  A    between atoms: _82  and  _85
REMARK   36  A    between atoms: _85  and  _86
REMARK   37  A    between atoms: _91  and  _93
REMARK   38  A    between atoms: _93  and  _94
REMARK   39  A    between atoms: _93  and  _96
REMARK   40  A    between atoms: _96  and  _97
REMARK   41  A    between atoms: _100  and  _102
REMARK   42  A    between atoms: _102  and  _103
REMARK   43  A    between atoms: _106  and  _108
REMARK   44  A    between atoms: _108  and  _109
REMARK   45  A    between atoms: _108  and  _111
REMARK   46  A    between atoms: _111  and  _112
REMARK   47  A    between atoms: _115  and  _117
REMARK   48  A    between atoms: _117  and  _118
REMARK   49  A    between atoms: _117  and  _120
REMARK   50  A    between atoms: _123  and  _125
REMARK   51  A    between atoms: _125  and  _126
REMARK   52  A    between atoms: _125  and  _128
REMARK   53  A    between atoms: _128  and  _129
REMARK   54  A    between atoms: _131  and  _133
REMARK   55  A    between atoms: _133  and  _134
REMARK   56  A    between atoms: _133  and  _136
REMARK   57  A    between atoms: _136  and  _137
REMARK   58  A    between atoms: _140  and  _142
REMARK   59  A    between atoms: _142  and  _143
REMARK   60  A    between atoms: _142  and  _145
REMARK   61  A    between atoms: _145  and  _146
REMARK   62  A    between atoms: _152  and  _154
REMARK   63  A    between atoms: _154  and  _155
REMARK   64  A    between atoms: _154  and  _157
REMARK   65  A    between atoms: _157  and  _158
REMARK   66  A    between atoms: _163  and  _165
REMARK   67  A    between atoms: _165  and  _166
REMARK   68  A    between atoms: _165  and  _168
REMARK   69  A    between atoms: _168  and  _169
REMARK   70  A    between atoms: _169  and  _170
REMARK   71  A    between atoms: _175  and  _177
REMARK   72  A    between atoms: _177  and  _178
REMARK   73  A    between atoms: _177  and  _180
REMARK   74  A    between atoms: _180  and  _181
REMARK   75  A    between atoms: _186  and  _187
REMARK   76  A    between atoms: _189  and  _191
REMARK   77  A    between atoms: _191  and  _192
REMARK   78  A    between atoms: _191  and  _194
REMARK   79  A    between atoms: _194  and  _195
REMARK   80  A    between atoms: _200  and  _202
REMARK   81  A    between atoms: _202  and  _203
REMARK   82  A    between atoms: _202  and  _205
REMARK   83  A    between atoms: _205  and  _206
REMARK   84  A    between atoms: _212  and  _214
REMARK   85  A    between atoms: _214  and  _215
REMARK   86  A    between atoms: _217  and  _219
REMARK   87  A    between atoms: _219  and  _220
REMARK   88  A    between atoms: _219  and  _222
REMARK   89  A    between atoms: _225  and  _227
REMARK   90  A    between atoms: _227  and  _228
REMARK   91  A    between atoms: _227  and  _230
REMARK   92  A    between atoms: _230  and  _231
REMARK   93  A    between atoms: _234  and  _236
REMARK   94  A    between atoms: _236  and  _237
REMARK   95  A    between atoms: _236  and  _239
REMARK   96  A    between atoms: _242  and  _244
REMARK   97  A    between atoms: _244  and  _245
REMARK   98  A    between atoms: _244  and  _247
REMARK   99  A    between atoms: _250  and  _252
REMARK  100  A    between atoms: _252  and  _253
REMARK  101  A    between atoms: _252  and  _255
REMARK  102  A    between atoms: _255  and  _256
REMARK  103  A    between atoms: _259  and  _261
REMARK  104  A    between atoms: _261  and  _262
REMARK  105  A    between atoms: _261  and  _264
REMARK  106  A    between atoms: _264  and  _265
REMARK  107  A    between atoms: _268  and  _270
REMARK  108  A    between atoms: _270  and  _271
REMARK  109  A    between atoms: _270  and  _273
REMARK  110  A    between atoms: _276  and  _278
REMARK  111  A    between atoms: _278  and  _279
REMARK  112  A    between atoms: _278  and  _281
REMARK  113  A    between atoms: _281  and  _282
REMARK  114  A    between atoms: _288  and  _290
REMARK  115  A    between atoms: _290  and  _291
REMARK  116  A    between atoms: _290  and  _293
REMARK  117  A    between atoms: _293  and  _294
REMARK  118  A    between atoms: _300  and  _302
REMARK  119  A    between atoms: _302  and  _303
REMARK  120  A    between atoms: _305  and  _307
REMARK  121  A    between atoms: _307  and  _308
REMARK  122  A    between atoms: _307  and  _310
REMARK  123  A    between atoms: _310  and  _311
REMARK  124  A    between atoms: _311  and  _312
REMARK  125  A    between atoms: _315  and  _317
REMARK  126  A    between atoms: _317  and  _318
REMARK  127  A    between atoms: _317  and  _320
REMARK  128  A    between atoms: _320  and  _321
REMARK  129  A    between atoms: _321  and  _322
REMARK  130  A    between atoms: _322  and  _323
REMARK  131  A    between atoms: _323  and  _324
REMARK  132  A    between atoms: _328  and  _330
REMARK  133  A    between atoms: _330  and  _331
REMARK  134  A    between atoms: _330  and  _333
REMARK  135  A    between atoms: _333  and  _334
REMARK  136  A    between atoms: _337  and  _339
REMARK  137  A    between atoms: _339  and  _340
REMARK  138  A    between atoms: _339  and  _342
REMARK  139  A    between atoms: _342  and  _343
REMARK  140  A    between atoms: _343  and  _344
REMARK  141  A    between atoms: _349  and  _351
REMARK  142  A    between atoms: _351  and  _352
REMARK  143  A    between atoms: _351  and  _354
REMARK  144  A    between atoms: _354  and  _355
REMARK  145  A    between atoms: _358  and  _360
REMARK  146  A    between atoms: _360  and  _361
REMARK  147  A    between atoms: _363  and  _365
REMARK  148  A    between atoms: _365  and  _366
REMARK  149  A    between atoms: _365  and  _368
REMARK  150  A    between atoms: _372  and  _373
REMARK  151  A    between atoms: _378  and  _380
REMARK  152  A    between atoms: _380  and  _381
REMARK  153  A    between atoms: _380  and  _383
REMARK  154  A    between atoms: _383  and  _384
REMARK  155  A    between atoms: _387  and  _389
REMARK  156  A    between atoms: _389  and  _390
REMARK  157  A    between atoms: _389  and  _392
REMARK  158  A    between atoms: _395  and  _397
REMARK  159  A    between atoms: _397  and  _398
REMARK  160  A    between atoms: _397  and  _400
REMARK  161  A    between atoms: _400  and  _401
REMARK  162  A    between atoms: _401  and  _402
REMARK  163  A    between atoms: _402  and  _403
REMARK  164  A    between atoms: _412  and  _414
REMARK  165  A    between atoms: _414  and  _415
REMARK  166  A    between atoms: _414  and  _417
REMARK  167  A    between atoms: _417  and  _418
REMARK  168  A    between atoms: _421  and  _423
REMARK  169  A    between atoms: _423  and  _424
REMARK  170  A    between atoms: _427  and  _429
REMARK  171  A    between atoms: _429  and  _430
REMARK  172  A    between atoms: _429  and  _432
REMARK  173  A    between atoms: _432  and  _433
REMARK  174  A    between atoms: _433  and  _434
REMARK  175  A    between atoms: _436  and  _438
REMARK  176  A    between atoms: _438  and  _439
REMARK  177  A    between atoms: _438  and  _441
REMARK  178  A    between atoms: _441  and  _442
REMARK  179  A    between atoms: _444  and  _446
REMARK  180  A    between atoms: _446  and  _447
REMARK  181  A    between atoms: _446  and  _449
REMARK  182  A    between atoms: _449  and  _450
REMARK  183  A    between atoms: _452  and  _454
REMARK  184  A    between atoms: _454  and  _455
REMARK  185  A    between atoms: _454  and  _457
REMARK  186  A    between atoms: _457  and  _458
REMARK  187  A    between atoms: _458  and  _459
REMARK  188  A    between atoms: _459  and  _460
REMARK  189  A    between atoms: _469  and  _471
REMARK  190  A    between atoms: _471  and  _472
REMARK  191  A    between atoms: _471  and  _474
REMARK  192  A    between atoms: _474  and  _475
REMARK  193  A    between atoms: _480  and  _482
REMARK  194  A    between atoms: _482  and  _483
REMARK  195  A    between atoms: _482  and  _485
REMARK  196  A    between atoms: _485  and  _486
REMARK  197  A    between atoms: _486  and  _487
REMARK  198  A    between atoms: _487  and  _488
REMARK  199  A    between atoms: _497  and  _499
REMARK  200  A    between atoms: _499  and  _500
REMARK  201  A    between atoms: _499  and  _502
REMARK  202  A    between atoms: _502  and  _503
REMARK  203  A    between atoms: _503  and  _504
REMARK  204  A    between atoms: _504  and  _505
REMARK  205  A    between atoms: _514  and  _516
REMARK  206  A    between atoms: _516  and  _517
REMARK  207  A    between atoms: _516  and  _519
REMARK  208  A    between atoms: _519  and  _520
REMARK  209  A    between atoms: _523  and  _525
REMARK  210  A    between atoms: _525  and  _526
REMARK  211  A    between atoms: _525  and  _528
REMARK  212  A    between atoms: _528  and  _529
REMARK                            x       y       z     vdW  Elec       q    Type
REMARK                         _______ _______ _______ _____ _____    ______ ____
ROOT
ATOM      1  CA  LEU A   1       7.179   9.580  13.974  0.00  0.00    +0.133 C 
ENDROOT
BRANCH   1   2
ATOM      2  N   LEU A   1       7.966   8.756  14.894  0.00  0.00    -0.239 NA
ATOM      3  H   LEU A   1       8.913   8.440  14.603  0.00  0.00    +0.142 HD
ENDBRANCH   1   2
BRANCH   1   4
ATOM      4  C   LEU A   1       5.786   8.968  13.735  0.00  0.00    +0.224 C 
ATOM      5  O   LEU A   1       4.795   9.686  13.722  0.00  0.00    -0.287 OA
ENDBRANCH   1   4
BRANCH   1   6
ATOM      6  CB  LEU A   1       7.854   9.733  12.631  0.00  0.00    +0.025 C 
BRANCH   6   7
ATOM      7  CG  LEU A   1       9.147  10.477  12.838  0.00  0.00    +0.002 C 
ATOM      8  CD2 LEU A   1       8.808  11.905  13.220  0.00  0.00    +0.000 C 
ATOM      9  CD1 LEU A   1       9.981  10.429  11.618  0.00  0.00    +0.000 C 
ENDBRANCH   6   7
ENDBRANCH   1   6
TORSDOF 4
REMARK  Name = ../refined-set-2016/3ivc/3ivc_pocket.pdb
REMARK  212 active torsions:
REMARK  status: ('A' for Active; 'I' for Inactive)
REMARK    1  A    between atoms: _1  and  _3
REMARK    2  A    between atoms: _3  and  _4
REMARK    3  A    between atoms: _3  and  _6
REMARK    4  A    between atoms: _10  and  _11
REMARK    5  A    between atoms: _16  and  _18
REMARK    6  A    between atoms: _18  and  _19
REMARK    7  A    between atoms: _18  and  _21
REMARK    8  A    between atoms: _21  and  _22
REMARK    9  A    between atoms: _25  and  _27
REMARK   10  A    between atoms: _27  and  _28
REMARK   11  A    between atoms: _27  and  _30
REMARK   12  A    between atoms: _30  and  _31
REMARK   13  A    between atoms: _31  and  _32
REMARK   14  A    between atoms: _34  and  _36
REMARK   15  A    between atoms: _36  and  _37
REMARK   16  A    between atoms: _39  and  _41
REMARK   17  A    between atoms: _41  and  _42
REMARK   18  A    between atoms: _45  and  _47
REMARK   19  A    between atoms: _47  and  _48
REMARK   20  A    between atoms: _47  and  _50
REMARK   21  A    between atoms: _50  and  _51
REMARK   22  A    between atoms: _54  and  _56
REMARK   23  A    between atoms: _56  and  _57
REMARK   24  A    between atoms: _56  and  _59
REMARK   25  A    between atoms: _59  and  _60
REMARK   26  A    between atoms: _65  and  _67
REMARK   27  A    between atoms: _67  and  _68
REMARK   28  A    between atoms: _67  and  _70
REMARK   29  A    between atoms: _70  and  _71
REMARK   30  A    between atoms: _71  and  _72
REMARK   31  A    between atoms: _75  and  _77
REMARK   32  A    between atoms: _77  and  _78
REMARK   33  A    between atoms: _80  and  _82
REMARK   34  A    between atoms: _82  and  _83
REMARK   35  A    between atoms: _82  and  _85
REMARK   36  A    between atoms: _85  and  _86
REMARK   37  A    between atoms: _91  and  _93
REMARK   38  A    between atoms: _93  and  _94
REMARK   39  A    between atoms: _93  and  _96
REMARK   40  A    between atoms: _96  and  _97
REMARK   41  A    between atoms: _100  and  _102
REMARK   42  A    between atoms: _102  and  _103
REMARK   43  A    between atoms: _106  and  _108
REMARK   44  A    between atoms: _108  and  _109
REMARK   45  A    between atoms: _108  and  _111
REMARK   46  A    between atoms: _111  and  _112
REMARK   47  A    between atoms: _115  and  _117
REMARK   48  A    between atoms: _117  and  _118
REMARK   49  A    between atoms: _117  and  _120
REMARK   50  A    between atoms: _123  and  _125
REMARK   51  A    between atoms: _125  and  _126
REMARK   52  A    between atoms: _125  and  _128
REMARK   53  A    between atoms: _128  and  _129
REMARK   54  A    between atoms: _131  and  _133
REMARK   55  A    between atoms: _133  and  _134
REMARK   56  A    between atoms: _133  and  _136
REMARK   57  A    between atoms: _136  and  _137
REMARK   58  A    between atoms: _140  and  _142
REMARK   59  A    between atoms: _142  and  _143
REMARK   60  A    between atoms: _142  and  _145
REMARK   61  A    between atoms: _145  and  _146
REMARK   62  A    between atoms: _152  and  _154
REMARK   63  A    between atoms: _154  and  _155
REMARK   64  A    between atoms: _154  and  _157
REMARK   65  A    between atoms: _157  and  _158
REMARK   66  A    between atoms: _163  and  _165
REMARK   67  A    between atoms: _165  and  _166
REMARK   68  A    between atoms: _165  and  _168
REMARK   69  A    between atoms: _168  and  _169
REMARK   70  A    between atoms: _169  and  _170
REMARK   71  A    between atoms: _175  and  _177
REMARK   72  A    between atoms: _177  and  _178
REMARK   73  A    between atoms: _177  and  _180
REMARK   74  A    between atoms: _180  and  _181
REMARK   75  A    between atoms: _186  and  _187
REMARK   76  A    between atoms: _189  and  _191
REMARK   77  A    between atoms: _191  and  _192
REMARK   78  A    between atoms: _191  and  _194
REMARK   79  A    between atoms: _194  and  _195
REMARK   80  A    between atoms: _200  and  _202
REMARK   81  A    between atoms: _202  and  _203
REMARK   82  A    between atoms: _202  and  _205
REMARK   83  A    between atoms: _205  and  _206
REMARK   84  A    between atoms: _212  and  _214
REMARK   85  A    between atoms: _214  and  _215
REMARK   86  A    between atoms: _217  and  _219
REMARK   87  A    between atoms: _219  and  _220
REMARK   88  A    between atoms: _219  and  _222
REMARK   89  A    between atoms: _225  and  _227
REMARK   90  A    between atoms: _227  and  _228
REMARK   91  A    between atoms: _227  and  _230
REMARK   92  A    between atoms: _230  and  _231
REMARK   93  A    between atoms: _234  and  _236
REMARK   94  A    between atoms: _236  and  _237
REMARK   95  A    between atoms: _236  and  _239
REMARK   96  A    between atoms: _242  and  _244
REMARK   97  A    between atoms: _244  and  _245
REMARK   98  A    between atoms: _244  and  _247
REMARK   99  A    between atoms: _250  and  _252
REMARK  100  A    between atoms: _252  and  _253
REMARK  101  A    between atoms: _252  and  _255
REMARK  102  A    between atoms: _255  and  _256
REMARK  103  A    between atoms: _259  and  _261
REMARK  104  A    between atoms: _261  and  _262
REMARK  105  A    between atoms: _261  and  _264
REMARK  106  A    between atoms: _264  and  _265
REMARK  107  A    between atoms: _268  and  _270
REMARK  108  A    between atoms: _270  and  _271
REMARK  109  A    between atoms: _270  and  _273
REMARK  110  A    between atoms: _276  and  _278
REMARK  111  A    between atoms: _278  and  _279
REMARK  112  A    between atoms: _278  and  _281
REMARK  113  A    between atoms: _281  and  _282
REMARK  114  A    between atoms: _288  and  _290
REMARK  115  A    between atoms: _290  and  _291
REMARK  116  A    between atoms: _290  and  _293
REMARK  117  A    between atoms: _293  and  _294
REMARK  118  A    between atoms: _300  and  _302
REMARK  119  A    between atoms: _302  and  _303
REMARK  120  A    between atoms: _305  and  _307
REMARK  121  A    between atoms: _307  and  _308
REMARK  122  A    between atoms: _307  and  _310
REMARK  123  A    between atoms: _310  and  _311
REMARK  124  A    between atoms: _311  and  _312
REMARK  125  A    between atoms: _315  and  _317
REMARK  126  A    between atoms: _317  and  _318
REMARK  127  A    between atoms: _317  and  _320
REMARK  128  A    between atoms: _320  and  _321
REMARK  129  A    between atoms: _321  and  _322
REMARK  130  A    between atoms: _322  and  _323
REMARK  131  A    between atoms: _323  and  _324
REMARK  132  A    between atoms: _328  and  _330
REMARK  133  A    between atoms: _330  and  _331
REMARK  134  A    between atoms: _330  and  _333
REMARK  135  A    between atoms: _333  and  _334
REMARK  136  A    between atoms: _337  and  _339
REMARK  137  A    between atoms: _339  and  _340
REMARK  138  A    between atoms: _339  and  _342
REMARK  139  A    between atoms: _342  and  _343
REMARK  140  A    between atoms: _343  and  _344
REMARK  141  A    between atoms: _349  and  _351
REMARK  142  A    between atoms: _351  and  _352
REMARK  143  A    between atoms: _351  and  _354
REMARK  144  A    between atoms: _354  and  _355
REMARK  145  A    between atoms: _358  and  _360
REMARK  146  A    between atoms: _360  and  _361
REMARK  147  A    between atoms: _363  and  _365
REMARK  148  A    between atoms: _365  and  _366
REMARK  149  A    between atoms: _365  and  _368
REMARK  150  A    between atoms: _372  and  _373
REMARK  151  A    between atoms: _378  and  _380
REMARK  152  A    between atoms: _380  and  _381
REMARK  153  A    between atoms: _380  and  _383
REMARK  154  A    between atoms: _383  and  _384
REMARK  155  A    between atoms: _387  and  _389
REMARK  156  A    between atoms: _389  and  _390
REMARK  157  A    between atoms: _389  and  _392
REMARK  158  A    between atoms: _395  and  _397
REMARK  159  A    between atoms: _397  and  _398
REMARK  160  A    between atoms: _397  and  _400
REMARK  161  A    between atoms: _400  and  _401
REMARK  162  A    between atoms: _401  and  _402
REMARK  163  A    between atoms: _402  and  _403
REMARK  164  A    between atoms: _412  and  _414
REMARK  165  A    between atoms: _414  and  _415
REMARK  166  A    between atoms: _414  and  _417
REMARK  167  A    between atoms: _417  and  _418
REMARK  168  A    between atoms: _421  and  _423
REMARK  169  A    between atoms: _423  and  _424
REMARK  170  A    between atoms: _427  and  _429
REMARK  171  A    between atoms: _429  and  _430
REMARK  172  A    between atoms: _429  and  _432
REMARK  173  A    between atoms: _432  and  _433
REMARK  174  A    between atoms: _433  and  _434
REMARK  175  A    between atoms: _436  and  _438
REMARK  176  A    between atoms: _438  and  _439
REMARK  177  A    between atoms: _438  and  _441
REMARK  178  A    between atoms: _441  and  _442
REMARK  179  A    between atoms: _444  and  _446
REMARK  180  A    between atoms: _446  and  _447
REMARK  181  A    between atoms: _446  and  _449
REMARK  182  A    between atoms: _449  and  _450
REMARK  183  A    between atoms: _452  and  _454
REMARK  184  A    between atoms: _454  and  _455
REMARK  185  A    between atoms: _454  and  _457
REMARK  186  A    between atoms: _457  and  _458
REMARK  187  A    between atoms: _458  and  _459
REMARK  188  A    between atoms: _459  and  _460
REMARK  189  A    between atoms: _469  and  _471
REMARK  190  A    between atoms: _471  and  _472
REMARK  191  A    between atoms: _471  and  _474
REMARK  192  A    between atoms: _474  and  _475
REMARK  193  A    between atoms: _480  and  _482
REMARK  194  A    between atoms: _482  and  _483
REMARK  195  A    between atoms: _482  and  _485
REMARK  196  A    between atoms: _485  and  _486
REMARK  197  A    between atoms: _486  and  _487
REMARK  198  A    between atoms: _487  and  _488
REMARK  199  A    between atoms: _497  and  _499
REMARK  200  A    between atoms: _499  and  _500
REMARK  201  A    between atoms: _499  and  _502
REMARK  202  A    between atoms: _502  and  _503
REMARK  203  A    between atoms: _503  and  _504
REMARK  204  A    between atoms: _504  and  _505
REMARK  205  A    between atoms: _514  and  _516
REMARK  206  A    between atoms: _516  and  _517
REMARK  207  A    between atoms: _516  and  _519
REMARK  208  A    between atoms: _519  and  _520
REMARK  209  A    between atoms: _523  and  _525
REMARK  210  A    between atoms: _525  and  _526
REMARK  211  A    between atoms: _525  and  _528
REMARK  212  A    between atoms: _528  and  _529
REMARK                            x       y       z     vdW  Elec       q    Type
REMARK                         _______ _______ _______ _____ _____    ______ ____
ROOT
ATOM      1  CA  GLY A   4      11.403   6.483  -1.813  0.00  0.00    +0.176 C 
ENDROOT
BRANCH   1   2
ATOM      2  C   GLY A   4      11.979   5.056  -1.834  0.00  0.00    +0.243 C 
ATOM      3  O   GLY A   4      12.346   4.481  -0.776  0.00  0.00    -0.273 OA
ATOM      4  N   GLU A   5      12.043   4.489  -3.040  0.00  0.00    -0.297 N 
ATOM      5  H   GLU A   5      11.664   5.021  -3.849  0.00  0.00    +0.150 HD
BRANCH   4   6
ATOM      6  CA  GLU A   5      12.609   3.175  -3.293  0.00  0.00    +0.149 C 
BRANCH   6   7
ATOM      7  C   GLU A   5      14.170   3.207  -3.426  0.00  0.00    +0.241 C 
ATOM      8  O   GLU A   5      14.822   2.173  -3.390  0.00  0.00    -0.273 OA
ATOM      9  N   LYS A   6      14.746   4.398  -3.553  0.00  0.00    -0.297 N 
ATOM     10  H   LYS A   6      14.157   5.255  -3.550  0.00  0.00    +0.150 HD
BRANCH   9  11
ATOM     11  CA  LYS A   6      16.198   4.519  -3.697  0.00  0.00    +0.149 C 
BRANCH  11  12
ATOM     12  C   LYS A   6      16.925   3.836  -2.523  0.00  0.00    +0.241 C 
ATOM     13  N   ASP A   7      16.507   4.151  -1.303  0.00  0.00    -0.298 N 
ATOM     14  H   ASP A   7      15.711   4.811  -1.189  0.00  0.00    +0.150 HD
ATOM     15  O   LYS A   6      17.808   3.005  -2.723  0.00  0.00    -0.273 OA
BRANCH  13  16
ATOM     16  CA  ASP A   7      17.136   3.596  -0.141  0.00  0.00    +0.148 C 
BRANCH  16  17
ATOM     17  C   ASP A   7      16.387   2.301   0.114  0.00  0.00    +0.227 C 
ATOM     18  O   ASP A   7      15.472   2.252   0.930  0.00  0.00    -0.286 OA
ENDBRANCH  16  17
BRANCH  16  19
ATOM     19  CB  ASP A   7      16.976   4.583   0.993  0.00  0.00    +0.142 C 
BRANCH  19  20
ATOM     20  CG  ASP A   7      17.937   5.761   0.887  0.00  0.00    +0.367 C 
ATOM     21  OD2 ASP A   7      19.152   5.507   1.023  0.00  0.00    -0.246 OA
ATOM     22  OD1 ASP A   7      17.494   6.939   0.711  0.00  0.00    -0.246 OA
ENDBRANCH  19  20
ENDBRANCH  16  19
ENDBRANCH  13  16
ENDBRANCH  11  12
BRANCH  11  23
ATOM     23  CB  LYS A   6      16.609   5.980  -3.869  0.00  0.00    +0.029 C 
BRANCH  23  24
ATOM     24  CG  LYS A   6      17.976   6.226  -4.512  0.00  0.00    +0.000 C 
BRANCH  24  25
ATOM     25  CD  LYS A   6      19.070   6.497  -3.491  0.00  0.00    -0.024 C 
BRANCH  25  26
ATOM     26  CE  LYS A   6      18.861   7.789  -2.722  0.00  0.00    -0.086 C 
BRANCH  26  27
ATOM     27  NZ  LYS A   6      19.759   7.872  -1.510  0.00  0.00    +0.380 N 
ATOM     28  HZ1 LYS A   6      19.554   7.076  -0.873  0.00  0.00    -0.089 HD
ATOM     29  HZ2 LYS A   6      19.586   8.769  -1.012  0.00  0.00    -0.089 HD
ATOM     30  HZ3 LYS A   6      20.753   7.829  -1.813  0.00  0.00    -0.089 HD
ENDBRANCH  26  27
ENDBRANCH  25  26
ENDBRANCH  24  25
ENDBRANCH  23  24
ENDBRANCH  11  23
ENDBRANCH   9  11
ENDBRANCH   6   7
BRANCH   6  31
ATOM     31  CB  GLU A   5      11.963   2.583  -4.564  0.00  0.00    +0.041 C 
BRANCH  31  32
ATOM     32  CG  GLU A   5      10.715   1.816  -4.329  0.00  0.00    +0.116 C 
BRANCH  32  33
ATOM     33  CD  GLU A   5      10.204   1.130  -5.598  0.00  0.00    +0.365 C 
ATOM     34  OE2 GLU A   5       9.039   0.727  -5.537  0.00  0.00    -0.246 OA
ATOM     35  OE1 GLU A   5      10.934   0.998  -6.648  0.00  0.00    -0.246 OA
ENDBRANCH  32  33
ENDBRANCH  31  32
ENDBRANCH   6  31
ENDBRANCH   4   6
ENDBRANCH   1   2
BRANCH   1  37
ATOM     36  C   PHE A   3       9.684   6.207  -0.176  0.00  0.00    +0.241 C 
ATOM     37  N   GLY A   4      10.804   6.821  -0.529  0.00  0.00    -0.295 N 
ATOM     38  H   GLY A   4      11.244   7.527   0.095  0.00  0.00    +0.150 HD
ATOM     39  O   PHE A   3       9.101   5.458  -0.938  0.00  0.00    -0.273 OA
BRANCH  36  40
ATOM     40  CA  PHE A   3       9.218   6.375   1.260  0.00  0.00    +0.153 C 
BRANCH  40  43
ATOM     41  C   PHE A   2       7.086   7.355   2.061  0.00  0.00    +0.241 C 
ATOM     42  O   PHE A   2       7.585   8.301   2.667  0.00  0.00    -0.273 OA
ATOM     43  N   PHE A   3       7.760   6.431   1.377  0.00  0.00    -0.297 N 
ATOM     44  H   PHE A   3       7.209   5.695   0.890  0.00  0.00    +0.150 HD
BRANCH  41  45
ATOM     45  CA  PHE A   2       5.593   7.200   2.019  0.00  0.00    +0.153 C 
BRANCH  45  47
ATOM     46  C   VAL A   1       4.384   6.183   3.839  0.00  0.00    +0.238 C 
ATOM     47  N   PHE A   2       5.055   7.217   3.368  0.00  0.00    -0.297 N 
ATOM     48  H   PHE A   2       5.200   8.053   3.969  0.00  0.00    +0.150 HD
ATOM     49  O   VAL A   1       4.409   5.075   3.312  0.00  0.00    -0.274 OA
BRANCH  46  50
ATOM     50  CA  VAL A   1       3.593   6.421   5.116  0.00  0.00    +0.145 C 
BRANCH  50  51
ATOM     51  CB  VAL A   1       4.401   5.981   6.384  0.00  0.00    +0.025 C 
ATOM     52  CG2 VAL A   1       5.676   6.864   6.577  0.00  0.00    +0.002 C 
ATOM     53  CG1 VAL A   1       4.689   4.448   6.410  0.00  0.00    +0.002 C 
ENDBRANCH  50  51
BRANCH  50  54
ATOM     54  N   VAL A   1       2.316   5.712   5.043  0.00  0.00    -0.238 NA
ATOM     55  H   VAL A   1       2.317   4.706   4.780  0.00  0.00    +0.142 HD
ENDBRANCH  50  54
ENDBRANCH  46  50
ENDBRANCH  45  47
BRANCH  45  56
ATOM     56  CB  PHE A   2       4.988   8.345   1.179  0.00  0.00    +0.055 C 
BRANCH  56  57
ATOM     57  CG  PHE A   2       3.498   8.179   0.945  0.00  0.00    -0.020 A 
ATOM     58  CD2 PHE A   2       2.583   8.427   1.975  0.00  0.00    -0.004 A 
ATOM     59  CE2 PHE A   2       1.196   8.246   1.775  0.00  0.00    -0.000 A 
ATOM     60  CZ  PHE A   2       0.739   7.842   0.523  0.00  0.00    -0.000 A 
ATOM     61  CE1 PHE A   2       1.644   7.601  -0.520  0.00  0.00    -0.000 A 
ATOM     62  CD1 PHE A   2       3.016   7.756  -0.311  0.00  0.00    -0.004 A 
ENDBRANCH  56  57
ENDBRANCH  45  56
ENDBRANCH  41  45
ENDBRANCH  40  43
BRANCH  40  63
ATOM     63  CB  PHE A   3       9.745   5.180   2.084  0.00  0.00    +0.055 C 
BRANCH  63  64
ATOM     64  CG  PHE A   3       9.610   5.364   3.593  0.00  0.00    -0.020 A 
ATOM     65  CD2 PHE A   3       8.596   4.749   4.289  0.00  0.00    -0.004 A 
ATOM     66  CE2 PHE A   3       8.471   4.965   5.664  0.00  0.00    -0.000 A 
ATOM     67  CZ  PHE A   3       9.392   5.777   6.340  0.00  0.00    -0.000 A 
ATOM     68  CE1 PHE A   3      10.415   6.352   5.654  0.00  0.00    -0.000 A 
ATOM     69  CD1 PHE A   3      10.505   6.146   4.287  0.00  0.00    -0.004 A 
ENDBRANCH  63  64
ENDBRANCH  40  63
ENDBRANCH  36  40
ENDBRANCH   1  37
TORSDOF 29
REMARK  Name = ../refined-set-2016/3ivc/3ivc_pocket.pdb
REMARK  212 active torsions:
REMARK  status: ('A' for Active; 'I' for Inactive)
REMARK    1  A    between atoms: _1  and  _3
REMARK    2  A    between atoms: _3  and  _4
REMARK    3  A    between atoms: _3  and  _6
REMARK    4  A    between atoms: _10  and  _11
REMARK    5  A    between atoms: _16  and  _18
REMARK    6  A    between atoms: _18  and  _19
REMARK    7  A    between atoms: _18  and  _21
REMARK    8  A    between atoms: _21  and  _22
REMARK    9  A    between atoms: _25  and  _27
REMARK   10  A    between atoms: _27  and  _28
REMARK   11  A    between atoms: _27  and  _30
REMARK   12  A    between atoms: _30  and  _31
REMARK   13  A    between atoms: _31  and  _32
REMARK   14  A    between atoms: _34  and  _36
REMARK   15  A    between atoms: _36  and  _37
REMARK   16  A    between atoms: _39  and  _41
REMARK   17  A    between atoms: _41  and  _42
REMARK   18  A    between atoms: _45  and  _47
REMARK   19  A    between atoms: _47  and  _48
REMARK   20  A    between atoms: _47  and  _50
REMARK   21  A    between atoms: _50  and  _51
REMARK   22  A    between atoms: _54  and  _56
REMARK   23  A    between atoms: _56  and  _57
REMARK   24  A    between atoms: _56  and  _59
REMARK   25  A    between atoms: _59  and  _60
REMARK   26  A    between atoms: _65  and  _67
REMARK   27  A    between atoms: _67  and  _68
REMARK   28  A    between atoms: _67  and  _70
REMARK   29  A    between atoms: _70  and  _71
REMARK   30  A    between atoms: _71  and  _72
REMARK   31  A    between atoms: _75  and  _77
REMARK   32  A    between atoms: _77  and  _78
REMARK   33  A    between atoms: _80  and  _82
REMARK   34  A    between atoms: _82  and  _83
REMARK   35  A    between atoms: _82  and  _85
REMARK   36  A    between atoms: _85  and  _86
REMARK   37  A    between atoms: _91  and  _93
REMARK   38  A    between atoms: _93  and  _94
REMARK   39  A    between atoms: _93  and  _96
REMARK   40  A    between atoms: _96  and  _97
REMARK   41  A    between atoms: _100  and  _102
REMARK   42  A    between atoms: _102  and  _103
REMARK   43  A    between atoms: _106  and  _108
REMARK   44  A    between atoms: _108  and  _109
REMARK   45  A    between atoms: _108  and  _111
REMARK   46  A    between atoms: _111  and  _112
REMARK   47  A    between atoms: _115  and  _117
REMARK   48  A    between atoms: _117  and  _118
REMARK   49  A    between atoms: _117  and  _120
REMARK   50  A    between atoms: _123  and  _125
REMARK   51  A    between atoms: _125  and  _126
REMARK   52  A    between atoms: _125  and  _128
REMARK   53  A    between atoms: _128  and  _129
REMARK   54  A    between atoms: _131  and  _133
REMARK   55  A    between atoms: _133  and  _134
REMARK   56  A    between atoms: _133  and  _136
REMARK   57  A    between atoms: _136  and  _137
REMARK   58  A    between atoms: _140  and  _142
REMARK   59  A    between atoms: _142  and  _143
REMARK   60  A    between atoms: _142  and  _145
REMARK   61  A    between atoms: _145  and  _146
REMARK   62  A    between atoms: _152  and  _154
REMARK   63  A    between atoms: _154  and  _155
REMARK   64  A    between atoms: _154  and  _157
REMARK   65  A    between atoms: _157  and  _158
REMARK   66  A    between atoms: _163  and  _165
REMARK   67  A    between atoms: _165  and  _166
REMARK   68  A    between atoms: _165  and  _168
REMARK   69  A    between atoms: _168  and  _169
REMARK   70  A    between atoms: _169  and  _170
REMARK   71  A    between atoms: _175  and  _177
REMARK   72  A    between atoms: _177  and  _178
REMARK   73  A    between atoms: _177  and  _180
REMARK   74  A    between atoms: _180  and  _181
REMARK   75  A    between atoms: _186  and  _187
REMARK   76  A    between atoms: _189  and  _191
REMARK   77  A    between atoms: _191  and  _192
REMARK   78  A    between atoms: _191  and  _194
REMARK   79  A    between atoms: _194  and  _195
REMARK   80  A    between atoms: _200  and  _202
REMARK   81  A    between atoms: _202  and  _203
REMARK   82  A    between atoms: _202  and  _205
REMARK   83  A    between atoms: _205  and  _206
REMARK   84  A    between atoms: _212  and  _214
REMARK   85  A    between atoms: _214  and  _215
REMARK   86  A    between atoms: _217  and  _219
REMARK   87  A    between atoms: _219  and  _220
REMARK   88  A    between atoms: _219  and  _222
REMARK   89  A    between atoms: _225  and  _227
REMARK   90  A    between atoms: _227  and  _228
REMARK   91  A    between atoms: _227  and  _230
REMARK   92  A    between atoms: _230  and  _231
REMARK   93  A    between atoms: _234  and  _236
REMARK   94  A    between atoms: _236  and  _237
REMARK   95  A    between atoms: _236  and  _239
REMARK   96  A    between atoms: _242  and  _244
REMARK   97  A    between atoms: _244  and  _245
REMARK   98  A    between atoms: _244  and  _247
REMARK   99  A    between atoms: _250  and  _252
REMARK  100  A    between atoms: _252  and  _253
REMARK  101  A    between atoms: _252  and  _255
REMARK  102  A    between atoms: _255  and  _256
REMARK  103  A    between atoms: _259  and  _261
REMARK  104  A    between atoms: _261  and  _262
REMARK  105  A    between atoms: _261  and  _264
REMARK  106  A    between atoms: _264  and  _265
REMARK  107  A    between atoms: _268  and  _270
REMARK  108  A    between atoms: _270  and  _271
REMARK  109  A    between atoms: _270  and  _273
REMARK  110  A    between atoms: _276  and  _278
REMARK  111  A    between atoms: _278  and  _279
REMARK  112  A    between atoms: _278  and  _281
REMARK  113  A    between atoms: _281  and  _282
REMARK  114  A    between atoms: _288  and  _290
REMARK  115  A    between atoms: _290  and  _291
REMARK  116  A    between atoms: _290  and  _293
REMARK  117  A    between atoms: _293  and  _294
REMARK  118  A    between atoms: _300  and  _302
REMARK  119  A    between atoms: _302  and  _303
REMARK  120  A    between atoms: _305  and  _307
REMARK  121  A    between atoms: _307  and  _308
REMARK  122  A    between atoms: _307  and  _310
REMARK  123  A    between atoms: _310  and  _311
REMARK  124  A    between atoms: _311  and  _312
REMARK  125  A    between atoms: _315  and  _317
REMARK  126  A    between atoms: _317  and  _318
REMARK  127  A    between atoms: _317  and  _320
REMARK  128  A    between atoms: _320  and  _321
REMARK  129  A    between atoms: _321  and  _322
REMARK  130  A    between atoms: _322  and  _323
REMARK  131  A    between atoms: _323  and  _324
REMARK  132  A    between atoms: _328  and  _330
REMARK  133  A    between atoms: _330  and  _331
REMARK  134  A    between atoms: _330  and  _333
REMARK  135  A    between atoms: _333  and  _334
REMARK  136  A    between atoms: _337  and  _339
REMARK  137  A    between atoms: _339  and  _340
REMARK  138  A    between atoms: _339  and  _342
REMARK  139  A    between atoms: _342  and  _343
REMARK  140  A    between atoms: _343  and  _344
REMARK  141  A    between atoms: _349  and  _351
REMARK  142  A    between atoms: _351  and  _352
REMARK  143  A    between atoms: _351  and  _354
REMARK  144  A    between atoms: _354  and  _355
REMARK  145  A    between atoms: _358  and  _360
REMARK  146  A    between atoms: _360  and  _361
REMARK  147  A    between atoms: _363  and  _365
REMARK  148  A    between atoms: _365  and  _366
REMARK  149  A    between atoms: _365  and  _368
REMARK  150  A    between atoms: _372  and  _373
REMARK  151  A    between atoms: _378  and  _380
REMARK  152  A    between atoms: _380  and  _381
REMARK  153  A    between atoms: _380  and  _383
REMARK  154  A    between atoms: _383  and  _384
REMARK  155  A    between atoms: _387  and  _389
REMARK  156  A    between atoms: _389  and  _390
REMARK  157  A    between atoms: _389  and  _392
REMARK  158  A    between atoms: _395  and  _397
REMARK  159  A    between atoms: _397  and  _398
REMARK  160  A    between atoms: _397  and  _400
REMARK  161  A    between atoms: _400  and  _401
REMARK  162  A    between atoms: _401  and  _402
REMARK  163  A    between atoms: _402  and  _403
REMARK  164  A    between atoms: _412  and  _414
REMARK  165  A    between atoms: _414  and  _415
REMARK  166  A    between atoms: _414  and  _417
REMARK  167  A    between atoms: _417  and  _418
REMARK  168  A    between atoms: _421  and  _423
REMARK  169  A    between atoms: _423  and  _424
REMARK  170  A    between atoms: _427  and  _429
REMARK  171  A    between atoms: _429  and  _430
REMARK  172  A    between atoms: _429  and  _432
REMARK  173  A    between atoms: _432  and  _433
REMARK  174  A    between atoms: _433  and  _434
REMARK  175  A    between atoms: _436  and  _438
REMARK  176  A    between atoms: _438  and  _439
REMARK  177  A    between atoms: _438  and  _441
REMARK  178  A    between atoms: _441  and  _442
REMARK  179  A    between atoms: _444  and  _446
REMARK  180  A    between atoms: _446  and  _447
REMARK  181  A    between atoms: _446  and  _449
REMARK  182  A    between atoms: _449  and  _450
REMARK  183  A    between atoms: _452  and  _454
REMARK  184  A    between atoms: _454  and  _455
REMARK  185  A    between atoms: _454  and  _457
REMARK  186  A    between atoms: _457  and  _458
REMARK  187  A    between atoms: _458  and  _459
REMARK  188  A    between atoms: _459  and  _460
REMARK  189  A    between atoms: _469  and  _471
REMARK  190  A    between atoms: _471  and  _472
REMARK  191  A    between atoms: _471  and  _474
REMARK  192  A    between atoms: _474  and  _475
REMARK  193  A    between atoms: _480  and  _482
REMARK  194  A    between atoms: _482  and  _483
REMARK  195  A    between atoms: _482  and  _485
REMARK  196  A    between atoms: _485  and  _486
REMARK  197  A    between atoms: _486  and  _487
REMARK  198  A    between atoms: _487  and  _488
REMARK  199  A    between atoms: _497  and  _499
REMARK  200  A    between atoms: _499  and  _500
REMARK  201  A    between atoms: _499  and  _502
REMARK  202  A    between atoms: _502  and  _503
REMARK  203  A    between atoms: _503  and  _504
REMARK  204  A    between atoms: _504  and  _505
REMARK  205  A    between atoms: _514  and  _516
REMARK  206  A    between atoms: _516  and  _517
REMARK  207  A    between atoms: _516  and  _519
REMARK  208  A    between atoms: _519  and  _520
REMARK  209  A    between atoms: _523  and  _525
REMARK  210  A    between atoms: _525  and  _526
REMARK  211  A    between atoms: _525  and  _528
REMARK  212  A    between atoms: _528  and  _529
REMARK                            x       y       z     vdW  Elec       q    Type
REMARK                         _______ _______ _______ _____ _____    ______ ____
ROOT
ATOM      1  CB  GLN A   1      16.156   2.476   4.562  0.00  0.00    +0.035 C 
ENDROOT
BRANCH   1   2
ATOM      2  CA  GLN A   1      15.802   1.014   4.609  0.00  0.00    +0.134 C 
BRANCH   2   3
ATOM      3  N   GLN A   1      16.549   0.289   3.588  0.00  0.00    -0.239 NA
ATOM      4  H   GLN A   1      17.145   0.824   2.925  0.00  0.00    +0.142 HD
ENDBRANCH   2   3
BRANCH   2   5
ATOM      5  C   GLN A   1      14.293   0.773   4.471  0.00  0.00    +0.224 C 
ATOM      6  O   GLN A   1      13.646   0.540   5.454  0.00  0.00    -0.287 OA
ENDBRANCH   2   5
ENDBRANCH   1   2
BRANCH   1   7
ATOM      7  CG  GLN A   1      15.137   3.421   5.193  0.00  0.00    +0.087 C 
BRANCH   7   8
ATOM      8  CD  GLN A   1      15.482   4.894   5.037  0.00  0.00    +0.219 C 
ATOM      9  OE1 GLN A   1      16.432   5.407   5.631  0.00  0.00    -0.275 OA
ATOM     10  NE2 GLN A   1      14.730   5.560   4.190  0.00  0.00    -0.329 N 
ATOM     11 HE21 GLN A   1      14.926   6.563   3.998  0.00  0.00    +0.145 HD
ATOM     12 HE22 GLN A   1      13.938   5.084   3.712  0.00  0.00    +0.145 HD
ENDBRANCH   7   8
ENDBRANCH   1   7
TORSDOF 5
REMARK  Name = ../refined-set-2016/3ivc/3ivc_pocket.pdb
REMARK  212 active torsions:
REMARK  status: ('A' for Active; 'I' for Inactive)
REMARK    1  A    between atoms: _1  and  _3
REMARK    2  A    between atoms: _3  and  _4
REMARK    3  A    between atoms: _3  and  _6
REMARK    4  A    between atoms: _10  and  _11
REMARK    5  A    between atoms: _16  and  _18
REMARK    6  A    between atoms: _18  and  _19
REMARK    7  A    between atoms: _18  and  _21
REMARK    8  A    between atoms: _21  and  _22
REMARK    9  A    between atoms: _25  and  _27
REMARK   10  A    between atoms: _27  and  _28
REMARK   11  A    between atoms: _27  and  _30
REMARK   12  A    between atoms: _30  and  _31
REMARK   13  A    between atoms: _31  and  _32
REMARK   14  A    between atoms: _34  and  _36
REMARK   15  A    between atoms: _36  and  _37
REMARK   16  A    between atoms: _39  and  _41
REMARK   17  A    between atoms: _41  and  _42
REMARK   18  A    between atoms: _45  and  _47
REMARK   19  A    between atoms: _47  and  _48
REMARK   20  A    between atoms: _47  and  _50
REMARK   21  A    between atoms: _50  and  _51
REMARK   22  A    between atoms: _54  and  _56
REMARK   23  A    between atoms: _56  and  _57
REMARK   24  A    between atoms: _56  and  _59
REMARK   25  A    between atoms: _59  and  _60
REMARK   26  A    between atoms: _65  and  _67
REMARK   27  A    between atoms: _67  and  _68
REMARK   28  A    between atoms: _67  and  _70
REMARK   29  A    between atoms: _70  and  _71
REMARK   30  A    between atoms: _71  and  _72
REMARK   31  A    between atoms: _75  and  _77
REMARK   32  A    between atoms: _77  and  _78
REMARK   33  A    between atoms: _80  and  _82
REMARK   34  A    between atoms: _82  and  _83
REMARK   35  A    between atoms: _82  and  _85
REMARK   36  A    between atoms: _85  and  _86
REMARK   37  A    between atoms: _91  and  _93
REMARK   38  A    between atoms: _93  and  _94
REMARK   39  A    between atoms: _93  and  _96
REMARK   40  A    between atoms: _96  and  _97
REMARK   41  A    between atoms: _100  and  _102
REMARK   42  A    between atoms: _102  and  _103
REMARK   43  A    between atoms: _106  and  _108
REMARK   44  A    between atoms: _108  and  _109
REMARK   45  A    between atoms: _108  and  _111
REMARK   46  A    between atoms: _111  and  _112
REMARK   47  A    between atoms: _115  and  _117
REMARK   48  A    between atoms: _117  and  _118
REMARK   49  A    between atoms: _117  and  _120
REMARK   50  A    between atoms: _123  and  _125
REMARK   51  A    between atoms: _125  and  _126
REMARK   52  A    between atoms: _125  and  _128
REMARK   53  A    between atoms: _128  and  _129
REMARK   54  A    between atoms: _131  and  _133
REMARK   55  A    between atoms: _133  and  _134
REMARK   56  A    between atoms: _133  and  _136
REMARK   57  A    between atoms: _136  and  _137
REMARK   58  A    between atoms: _140  and  _142
REMARK   59  A    between atoms: _142  and  _143
REMARK   60  A    between atoms: _142  and  _145
REMARK   61  A    between atoms: _145  and  _146
REMARK   62  A    between atoms: _152  and  _154
REMARK   63  A    between atoms: _154  and  _155
REMARK   64  A    between atoms: _154  and  _157
REMARK   65  A    between atoms: _157  and  _158
REMARK   66  A    between atoms: _163  and  _165
REMARK   67  A    between atoms: _165  and  _166
REMARK   68  A    between atoms: _165  and  _168
REMARK   69  A    between atoms: _168  and  _169
REMARK   70  A    between atoms: _169  and  _170
REMARK   71  A    between atoms: _175  and  _177
REMARK   72  A    between atoms: _177  and  _178
REMARK   73  A    between atoms: _177  and  _180
REMARK   74  A    between atoms: _180  and  _181
REMARK   75  A    between atoms: _186  and  _187
REMARK   76  A    between atoms: _189  and  _191
REMARK   77  A    between atoms: _191  and  _192
REMARK   78  A    between atoms: _191  and  _194
REMARK   79  A    between atoms: _194  and  _195
REMARK   80  A    between atoms: _200  and  _202
REMARK   81  A    between atoms: _202  and  _203
REMARK   82  A    between atoms: _202  and  _205
REMARK   83  A    between atoms: _205  and  _206
REMARK   84  A    between atoms: _212  and  _214
REMARK   85  A    between atoms: _214  and  _215
REMARK   86  A    between atoms: _217  and  _219
REMARK   87  A    between atoms: _219  and  _220
REMARK   88  A    between atoms: _219  and  _222
REMARK   89  A    between atoms: _225  and  _227
REMARK   90  A    between atoms: _227  and  _228
REMARK   91  A    between atoms: _227  and  _230
REMARK   92  A    between atoms: _230  and  _231
REMARK   93  A    between atoms: _234  and  _236
REMARK   94  A    between atoms: _236  and  _237
REMARK   95  A    between atoms: _236  and  _239
REMARK   96  A    between atoms: _242  and  _244
REMARK   97  A    between atoms: _244  and  _245
REMARK   98  A    between atoms: _244  and  _247
REMARK   99  A    between atoms: _250  and  _252
REMARK  100  A    between atoms: _252  and  _253
REMARK  101  A    between atoms: _252  and  _255
REMARK  102  A    between atoms: _255  and  _256
REMARK  103  A    between atoms: _259  and  _261
REMARK  104  A    between atoms: _261  and  _262
REMARK  105  A    between atoms: _261  and  _264
REMARK  106  A    between atoms: _264  and  _265
REMARK  107  A    between atoms: _268  and  _270
REMARK  108  A    between atoms: _270  and  _271
REMARK  109  A    between atoms: _270  and  _273
REMARK  110  A    between atoms: _276  and  _278
REMARK  111  A    between atoms: _278  and  _279
REMARK  112  A    between atoms: _278  and  _281
REMARK  113  A    between atoms: _281  and  _282
REMARK  114  A    between atoms: _288  and  _290
REMARK  115  A    between atoms: _290  and  _291
REMARK  116  A    between atoms: _290  and  _293
REMARK  117  A    between atoms: _293  and  _294
REMARK  118  A    between atoms: _300  and  _302
REMARK  119  A    between atoms: _302  and  _303
REMARK  120  A    between atoms: _305  and  _307
REMARK  121  A    between atoms: _307  and  _308
REMARK  122  A    between atoms: _307  and  _310
REMARK  123  A    between atoms: _310  and  _311
REMARK  124  A    between atoms: _311  and  _312
REMARK  125  A    between atoms: _315  and  _317
REMARK  126  A    between atoms: _317  and  _318
REMARK  127  A    between atoms: _317  and  _320
REMARK  128  A    between atoms: _320  and  _321
REMARK  129  A    between atoms: _321  and  _322
REMARK  130  A    between atoms: _322  and  _323
REMARK  131  A    between atoms: _323  and  _324
REMARK  132  A    between atoms: _328  and  _330
REMARK  133  A    between atoms: _330  and  _331
REMARK  134  A    between atoms: _330  and  _333
REMARK  135  A    between atoms: _333  and  _334
REMARK  136  A    between atoms: _337  and  _339
REMARK  137  A    between atoms: _339  and  _340
REMARK  138  A    between atoms: _339  and  _342
REMARK  139  A    between atoms: _342  and  _343
REMARK  140  A    between atoms: _343  and  _344
REMARK  141  A    between atoms: _349  and  _351
REMARK  142  A    between atoms: _351  and  _352
REMARK  143  A    between atoms: _351  and  _354
REMARK  144  A    between atoms: _354  and  _355
REMARK  145  A    between atoms: _358  and  _360
REMARK  146  A    between atoms: _360  and  _361
REMARK  147  A    between atoms: _363  and  _365
REMARK  148  A    between atoms: _365  and  _366
REMARK  149  A    between atoms: _365  and  _368
REMARK  150  A    between atoms: _372  and  _373
REMARK  151  A    between atoms: _378  and  _380
REMARK  152  A    between atoms: _380  and  _381
REMARK  153  A    between atoms: _380  and  _383
REMARK  154  A    between atoms: _383  and  _384
REMARK  155  A    between atoms: _387  and  _389
REMARK  156  A    between atoms: _389  and  _390
REMARK  157  A    between atoms: _389  and  _392
REMARK  158  A    between atoms: _395  and  _397
REMARK  159  A    between atoms: _397  and  _398
REMARK  160  A    between atoms: _397  and  _400
REMARK  161  A    between atoms: _400  and  _401
REMARK  162  A    between atoms: _401  and  _402
REMARK  163  A    between atoms: _402  and  _403
REMARK  164  A    between atoms: _412  and  _414
REMARK  165  A    between atoms: _414  and  _415
REMARK  166  A    between atoms: _414  and  _417
REMARK  167  A    between atoms: _417  and  _418
REMARK  168  A    between atoms: _421  and  _423
REMARK  169  A    between atoms: _423  and  _424
REMARK  170  A    between atoms: _427  and  _429
REMARK  171  A    between atoms: _429  and  _430
REMARK  172  A    between atoms: _429  and  _432
REMARK  173  A    between atoms: _432  and  _433
REMARK  174  A    between atoms: _433  and  _434
REMARK  175  A    between atoms: _436  and  _438
REMARK  176  A    between atoms: _438  and  _439
REMARK  177  A    between atoms: _438  and  _441
REMARK  178  A    between atoms: _441  and  _442
REMARK  179  A    between atoms: _444  and  _446
REMARK  180  A    between atoms: _446  and  _447
REMARK  181  A    between atoms: _446  and  _449
REMARK  182  A    between atoms: _449  and  _450
REMARK  183  A    between atoms: _452  and  _454
REMARK  184  A    between atoms: _454  and  _455
REMARK  185  A    between atoms: _454  and  _457
REMARK  186  A    between atoms: _457  and  _458
REMARK  187  A    between atoms: _458  and  _459
REMARK  188  A    between atoms: _459  and  _460
REMARK  189  A    between atoms: _469  and  _471
REMARK  190  A    between atoms: _471  and  _472
REMARK  191  A    between atoms: _471  and  _474
REMARK  192  A    between atoms: _474  and  _475
REMARK  193  A    between atoms: _480  and  _482
REMARK  194  A    between atoms: _482  and  _483
REMARK  195  A    between atoms: _482  and  _485
REMARK  196  A    between atoms: _485  and  _486
REMARK  197  A    between atoms: _486  and  _487
REMARK  198  A    between atoms: _487  and  _488
REMARK  199  A    between atoms: _497  and  _499
REMARK  200  A    between atoms: _499  and  _500
REMARK  201  A    between atoms: _499  and  _502
REMARK  202  A    between atoms: _502  and  _503
REMARK  203  A    between atoms: _503  and  _504
REMARK  204  A    between atoms: _504  and  _505
REMARK  205  A    between atoms: _514  and  _516
REMARK  206  A    between atoms: _516  and  _517
REMARK  207  A    between atoms: _516  and  _519
REMARK  208  A    between atoms: _519  and  _520
REMARK  209  A    between atoms: _523  and  _525
REMARK  210  A    between atoms: _525  and  _526
REMARK  211  A    between atoms: _525  and  _528
REMARK  212  A    between atoms: _528  and  _529
REMARK                            x       y       z     vdW  Elec       q    Type
REMARK                         _______ _______ _______ _____ _____    ______ ____
ROOT
ATOM      1  CA  ILE A   1      10.601  -0.296   7.641  0.00  0.00    +0.133 C 
ENDROOT
BRANCH   1   2
ATOM      2  N   ILE A   1      11.803  -0.986   7.167  0.00  0.00    -0.239 NA
ATOM      3  H   ILE A   1      12.292  -0.636   6.318  0.00  0.00    +0.142 HD
ENDBRANCH   1   2
BRANCH   1   4
ATOM      4  C   ILE A   1       9.341  -1.110   7.435  0.00  0.00    +0.224 C 
ATOM      5  O   ILE A   1       8.475  -1.096   8.305  0.00  0.00    -0.287 OA
ENDBRANCH   1   4
BRANCH   1   6
ATOM      6  CB  ILE A   1      10.469   1.113   7.047  0.00  0.00    +0.023 C 
ATOM      7  CG2 ILE A   1       9.020   1.706   7.306  0.00  0.00    +0.002 C 
BRANCH   6   8
ATOM      8  CG1 ILE A   1      11.577   2.035   7.632  0.00  0.00    +0.002 C 
ATOM      9  CD1 ILE A   1      11.875   3.170   6.742  0.00  0.00    +0.000 C 
ENDBRANCH   6   8
ENDBRANCH   1   6
TORSDOF 4
REMARK  Name = ../refined-set-2016/3ivc/3ivc_pocket.pdb
REMARK  212 active torsions:
REMARK  status: ('A' for Active; 'I' for Inactive)
REMARK    1  A    between atoms: _1  and  _3
REMARK    2  A    between atoms: _3  and  _4
REMARK    3  A    between atoms: _3  and  _6
REMARK    4  A    between atoms: _10  and  _11
REMARK    5  A    between atoms: _16  and  _18
REMARK    6  A    between atoms: _18  and  _19
REMARK    7  A    between atoms: _18  and  _21
REMARK    8  A    between atoms: _21  and  _22
REMARK    9  A    between atoms: _25  and  _27
REMARK   10  A    between atoms: _27  and  _28
REMARK   11  A    between atoms: _27  and  _30
REMARK   12  A    between atoms: _30  and  _31
REMARK   13  A    between atoms: _31  and  _32
REMARK   14  A    between atoms: _34  and  _36
REMARK   15  A    between atoms: _36  and  _37
REMARK   16  A    between atoms: _39  and  _41
REMARK   17  A    between atoms: _41  and  _42
REMARK   18  A    between atoms: _45  and  _47
REMARK   19  A    between atoms: _47  and  _48
REMARK   20  A    between atoms: _47  and  _50
REMARK   21  A    between atoms: _50  and  _51
REMARK   22  A    between atoms: _54  and  _56
REMARK   23  A    between atoms: _56  and  _57
REMARK   24  A    between atoms: _56  and  _59
REMARK   25  A    between atoms: _59  and  _60
REMARK   26  A    between atoms: _65  and  _67
REMARK   27  A    between atoms: _67  and  _68
REMARK   28  A    between atoms: _67  and  _70
REMARK   29  A    between atoms: _70  and  _71
REMARK   30  A    between atoms: _71  and  _72
REMARK   31  A    between atoms: _75  and  _77
REMARK   32  A    between atoms: _77  and  _78
REMARK   33  A    between atoms: _80  and  _82
REMARK   34  A    between atoms: _82  and  _83
REMARK   35  A    between atoms: _82  and  _85
REMARK   36  A    between atoms: _85  and  _86
REMARK   37  A    between atoms: _91  and  _93
REMARK   38  A    between atoms: _93  and  _94
REMARK   39  A    between atoms: _93  and  _96
REMARK   40  A    between atoms: _96  and  _97
REMARK   41  A    between atoms: _100  and  _102
REMARK   42  A    between atoms: _102  and  _103
REMARK   43  A    between atoms: _106  and  _108
REMARK   44  A    between atoms: _108  and  _109
REMARK   45  A    between atoms: _108  and  _111
REMARK   46  A    between atoms: _111  and  _112
REMARK   47  A    between atoms: _115  and  _117
REMARK   48  A    between atoms: _117  and  _118
REMARK   49  A    between atoms: _117  and  _120
REMARK   50  A    between atoms: _123  and  _125
REMARK   51  A    between atoms: _125  and  _126
REMARK   52  A    between atoms: _125  and  _128
REMARK   53  A    between atoms: _128  and  _129
REMARK   54  A    between atoms: _131  and  _133
REMARK   55  A    between atoms: _133  and  _134
REMARK   56  A    between atoms: _133  and  _136
REMARK   57  A    between atoms: _136  and  _137
REMARK   58  A    between atoms: _140  and  _142
REMARK   59  A    between atoms: _142  and  _143
REMARK   60  A    between atoms: _142  and  _145
REMARK   61  A    between atoms: _145  and  _146
REMARK   62  A    between atoms: _152  and  _154
REMARK   63  A    between atoms: _154  and  _155
REMARK   64  A    between atoms: _154  and  _157
REMARK   65  A    between atoms: _157  and  _158
REMARK   66  A    between atoms: _163  and  _165
REMARK   67  A    between atoms: _165  and  _166
REMARK   68  A    between atoms: _165  and  _168
REMARK   69  A    between atoms: _168  and  _169
REMARK   70  A    between atoms: _169  and  _170
REMARK   71  A    between atoms: _175  and  _177
REMARK   72  A    between atoms: _177  and  _178
REMARK   73  A    between atoms: _177  and  _180
REMARK   74  A    between atoms: _180  and  _181
REMARK   75  A    between atoms: _186  and  _187
REMARK   76  A    between atoms: _189  and  _191
REMARK   77  A    between atoms: _191  and  _192
REMARK   78  A    between atoms: _191  and  _194
REMARK   79  A    between atoms: _194  and  _195
REMARK   80  A    between atoms: _200  and  _202
REMARK   81  A    between atoms: _202  and  _203
REMARK   82  A    between atoms: _202  and  _205
REMARK   83  A    between atoms: _205  and  _206
REMARK   84  A    between atoms: _212  and  _214
REMARK   85  A    between atoms: _214  and  _215
REMARK   86  A    between atoms: _217  and  _219
REMARK   87  A    between atoms: _219  and  _220
REMARK   88  A    between atoms: _219  and  _222
REMARK   89  A    between atoms: _225  and  _227
REMARK   90  A    between atoms: _227  and  _228
REMARK   91  A    between atoms: _227  and  _230
REMARK   92  A    between atoms: _230  and  _231
REMARK   93  A    between atoms: _234  and  _236
REMARK   94  A    between atoms: _236  and  _237
REMARK   95  A    between atoms: _236  and  _239
REMARK   96  A    between atoms: _242  and  _244
REMARK   97  A    between atoms: _244  and  _245
REMARK   98  A    between atoms: _244  and  _247
REMARK   99  A    between atoms: _250  and  _252
REMARK  100  A    between atoms: _252  and  _253
REMARK  101  A    between atoms: _252  and  _255
REMARK  102  A    between atoms: _255  and  _256
REMARK  103  A    between atoms: _259  and  _261
REMARK  104  A    between atoms: _261  and  _262
REMARK  105  A    between atoms: _261  and  _264
REMARK  106  A    between atoms: _264  and  _265
REMARK  107  A    between atoms: _268  and  _270
REMARK  108  A    between atoms: _270  and  _271
REMARK  109  A    between atoms: _270  and  _273
REMARK  110  A    between atoms: _276  and  _278
REMARK  111  A    between atoms: _278  and  _279
REMARK  112  A    between atoms: _278  and  _281
REMARK  113  A    between atoms: _281  and  _282
REMARK  114  A    between atoms: _288  and  _290
REMARK  115  A    between atoms: _290  and  _291
REMARK  116  A    between atoms: _290  and  _293
REMARK  117  A    between atoms: _293  and  _294
REMARK  118  A    between atoms: _300  and  _302
REMARK  119  A    between atoms: _302  and  _303
REMARK  120  A    between atoms: _305  and  _307
REMARK  121  A    between atoms: _307  and  _308
REMARK  122  A    between atoms: _307  and  _310
REMARK  123  A    between atoms: _310  and  _311
REMARK  124  A    between atoms: _311  and  _312
REMARK  125  A    between atoms: _315  and  _317
REMARK  126  A    between atoms: _317  and  _318
REMARK  127  A    between atoms: _317  and  _320
REMARK  128  A    between atoms: _320  and  _321
REMARK  129  A    between atoms: _321  and  _322
REMARK  130  A    between atoms: _322  and  _323
REMARK  131  A    between atoms: _323  and  _324
REMARK  132  A    between atoms: _328  and  _330
REMARK  133  A    between atoms: _330  and  _331
REMARK  134  A    between atoms: _330  and  _333
REMARK  135  A    between atoms: _333  and  _334
REMARK  136  A    between atoms: _337  and  _339
REMARK  137  A    between atoms: _339  and  _340
REMARK  138  A    between atoms: _339  and  _342
REMARK  139  A    between atoms: _342  and  _343
REMARK  140  A    between atoms: _343  and  _344
REMARK  141  A    between atoms: _349  and  _351
REMARK  142  A    between atoms: _351  and  _352
REMARK  143  A    between atoms: _351  and  _354
REMARK  144  A    between atoms: _354  and  _355
REMARK  145  A    between atoms: _358  and  _360
REMARK  146  A    between atoms: _360  and  _361
REMARK  147  A    between atoms: _363  and  _365
REMARK  148  A    between atoms: _365  and  _366
REMARK  149  A    between atoms: _365  and  _368
REMARK  150  A    between atoms: _372  and  _373
REMARK  151  A    between atoms: _378  and  _380
REMARK  152  A    between atoms: _380  and  _381
REMARK  153  A    between atoms: _380  and  _383
REMARK  154  A    between atoms: _383  and  _384
REMARK  155  A    between atoms: _387  and  _389
REMARK  156  A    between atoms: _389  and  _390
REMARK  157  A    between atoms: _389  and  _392
REMARK  158  A    between atoms: _395  and  _397
REMARK  159  A    between atoms: _397  and  _398
REMARK  160  A    between atoms: _397  and  _400
REMARK  161  A    between atoms: _400  and  _401
REMARK  162  A    between atoms: _401  and  _402
REMARK  163  A    between atoms: _402  and  _403
REMARK  164  A    between atoms: _412  and  _414
REMARK  165  A    between atoms: _414  and  _415
REMARK  166  A    between atoms: _414  and  _417
REMARK  167  A    between atoms: _417  and  _418
REMARK  168  A    between atoms: _421  and  _423
REMARK  169  A    between atoms: _423  and  _424
REMARK  170  A    between atoms: _427  and  _429
REMARK  171  A    between atoms: _429  and  _430
REMARK  172  A    between atoms: _429  and  _432
REMARK  173  A    between atoms: _432  and  _433
REMARK  174  A    between atoms: _433  and  _434
REMARK  175  A    between atoms: _436  and  _438
REMARK  176  A    between atoms: _438  and  _439
REMARK  177  A    between atoms: _438  and  _441
REMARK  178  A    between atoms: _441  and  _442
REMARK  179  A    between atoms: _444  and  _446
REMARK  180  A    between atoms: _446  and  _447
REMARK  181  A    between atoms: _446  and  _449
REMARK  182  A    between atoms: _449  and  _450
REMARK  183  A    between atoms: _452  and  _454
REMARK  184  A    between atoms: _454  and  _455
REMARK  185  A    between atoms: _454  and  _457
REMARK  186  A    between atoms: _457  and  _458
REMARK  187  A    between atoms: _458  and  _459
REMARK  188  A    between atoms: _459  and  _460
REMARK  189  A    between atoms: _469  and  _471
REMARK  190  A    between atoms: _471  and  _472
REMARK  191  A    between atoms: _471  and  _474
REMARK  192  A    between atoms: _474  and  _475
REMARK  193  A    between atoms: _480  and  _482
REMARK  194  A    between atoms: _482  and  _483
REMARK  195  A    between atoms: _482  and  _485
REMARK  196  A    between atoms: _485  and  _486
REMARK  197  A    between atoms: _486  and  _487
REMARK  198  A    between atoms: _487  and  _488
REMARK  199  A    between atoms: _497  and  _499
REMARK  200  A    between atoms: _499  and  _500
REMARK  201  A    between atoms: _499  and  _502
REMARK  202  A    between atoms: _502  and  _503
REMARK  203  A    between atoms: _503  and  _504
REMARK  204  A    between atoms: _504  and  _505
REMARK  205  A    between atoms: _514  and  _516
REMARK  206  A    between atoms: _516  and  _517
REMARK  207  A    between atoms: _516  and  _519
REMARK  208  A    between atoms: _519  and  _520
REMARK  209  A    between atoms: _523  and  _525
REMARK  210  A    between atoms: _525  and  _526
REMARK  211  A    between atoms: _525  and  _528
REMARK  212  A    between atoms: _528  and  _529
REMARK                            x       y       z     vdW  Elec       q    Type
REMARK                         _______ _______ _______ _____ _____    ______ ____
ROOT
ATOM      1  CA  THR A   4      12.909   6.752  -7.534  0.00  0.00    +0.176 C 
ENDROOT
BRANCH   1   2
ATOM      2  C   THR A   4      12.765   7.820  -8.623  0.00  0.00    +0.243 C 
ATOM      3  N   VAL A   5      12.770   9.081  -8.217  0.00  0.00    -0.297 N 
ATOM      4  H   VAL A   5      12.734   9.290  -7.199  0.00  0.00    +0.150 HD
ATOM      5  O   THR A   4      12.671   7.504  -9.821  0.00  0.00    -0.273 OA
BRANCH   3   6
ATOM      6  CA  VAL A   5      12.825  10.173  -9.164  0.00  0.00    +0.149 C 
BRANCH   6   7
ATOM      7  C   VAL A   5      14.296  10.328  -9.551  0.00  0.00    +0.241 C 
ATOM      8  O   VAL A   5      15.179  10.212  -8.701  0.00  0.00    -0.273 OA
ATOM      9  N   ARG A   6      14.539  10.581 -10.840  0.00  0.00    -0.298 N 
ATOM     10  H   ARG A   6      13.736  10.702 -11.490  0.00  0.00    +0.150 HD
BRANCH   9  11
ATOM     11  CA  ARG A   6      15.910  10.694 -11.369  0.00  0.00    +0.137 C 
BRANCH  11  12
ATOM     12  C   ARG A   6      16.169  11.998 -12.090  0.00  0.00    +0.227 C 
ATOM     13  O   ARG A   6      15.265  12.591 -12.623  0.00  0.00    -0.286 OA
ENDBRANCH  11  12
BRANCH  11  14
ATOM     14  CB  ARG A   6      16.236   9.535 -12.311  0.00  0.00    +0.031 C 
BRANCH  14  15
ATOM     15  CG  ARG A   6      15.953   8.164 -11.678  0.00  0.00    +0.045 C 
BRANCH  15  16
ATOM     16  CD  ARG A   6      16.254   7.023 -12.592  0.00  0.00    +0.174 C 
BRANCH  16  17
ATOM     17  NE  ARG A   6      16.140   5.821 -11.766  0.00  0.00    -0.265 N 
ATOM     18  CZ  ARG A   6      17.144   5.225 -11.132  0.00  0.00    +0.342 C 
ATOM     19  NH2 ARG A   6      16.907   4.144 -10.372  0.00  0.00    -0.292 N 
ATOM     20 HH21 ARG A   6      17.691   3.676  -9.875  0.00  0.00    +0.255 HD
ATOM     21 HH22 ARG A   6      15.939   3.775 -10.280  0.00  0.00    +0.255 HD
ATOM     22  NH1 ARG A   6      18.382   5.702 -11.253  0.00  0.00    -0.292 N 
ATOM     23 HH11 ARG A   6      19.169   5.237 -10.758  0.00  0.00    +0.255 HD
ATOM     24 HH12 ARG A   6      18.561   6.540 -11.843  0.00  0.00    +0.255 HD
ATOM     25  HE  ARG A   6      15.195   5.398 -11.667  0.00  0.00    +0.259 HD
ENDBRANCH  16  17
ENDBRANCH  15  16
ENDBRANCH  14  15
ENDBRANCH  11  14
ENDBRANCH   9  11
ENDBRANCH   6   7
BRANCH   6  26
ATOM     26  CB  VAL A   5      12.186  11.495  -8.575  0.00  0.00    +0.027 C 
ATOM     27  CG2 VAL A   5      10.690  11.256  -8.252  0.00  0.00    +0.002 C 
ATOM     28  CG1 VAL A   5      12.341  12.672  -9.529  0.00  0.00    +0.002 C 
ENDBRANCH   6  26
ENDBRANCH   3   6
ENDBRANCH   1   2
BRANCH   1  31
ATOM     29  C   PRO A   3      10.628   5.913  -7.565  0.00  0.00    +0.241 C 
ATOM     30  O   PRO A   3      10.167   7.049  -7.443  0.00  0.00    -0.273 OA
ATOM     31  N   THR A   4      11.923   5.680  -7.649  0.00  0.00    -0.295 N 
ATOM     32  H   THR A   4      12.252   4.705  -7.801  0.00  0.00    +0.150 HD
BRANCH  29  39
ATOM     33  C   VAL A   2       8.681   5.126  -5.437  0.00  0.00    +0.244 C 
ATOM     34  O   VAL A   2       9.775   5.322  -4.917  0.00  0.00    -0.273 OA
ATOM     35  N   PRO A   3       8.549   4.812  -6.759  0.00  0.00    -0.272 N 
ATOM     36  CD  PRO A   3       7.320   4.472  -7.520  0.00  0.00    +0.094 C 
ATOM     37  CG  PRO A   3       7.885   3.716  -8.772  0.00  0.00    +0.024 C 
ATOM     38  CB  PRO A   3       9.130   4.464  -9.015  0.00  0.00    +0.031 C 
ATOM     39  CA  PRO A   3       9.729   4.680  -7.616  0.00  0.00    +0.152 C 
BRANCH  33  40
ATOM     40  CA  VAL A   2       7.426   5.205  -4.569  0.00  0.00    +0.149 C 
BRANCH  40  42
ATOM     41  C   GLY A   1       6.940   3.403  -3.004  0.00  0.00    +0.240 C 
ATOM     42  N   VAL A   2       7.662   4.455  -3.351  0.00  0.00    -0.297 N 
ATOM     43  H   VAL A   2       8.433   4.758  -2.722  0.00  0.00    +0.150 HD
ATOM     44  O   GLY A   1       6.034   2.961  -3.686  0.00  0.00    -0.274 OA
BRANCH  41  45
ATOM     45  CA  GLY A   1       7.273   2.717  -1.688  0.00  0.00    +0.169 C 
BRANCH  45  46
ATOM     46  N   GLY A   1       5.970   2.426  -1.080  0.00  0.00    -0.236 NA
ATOM     47  H   GLY A   1       5.482   1.531  -1.284  0.00  0.00    +0.142 HD
ENDBRANCH  45  46
ENDBRANCH  41  45
ENDBRANCH  40  42
BRANCH  40  48
ATOM     48  CB  VAL A   2       7.112   6.682  -4.176  0.00  0.00    +0.027 C 
ATOM     49  CG2 VAL A   2       5.788   6.712  -3.327  0.00  0.00    +0.002 C 
ATOM     50  CG1 VAL A   2       7.068   7.622  -5.421  0.00  0.00    +0.002 C 
ENDBRANCH  40  48
ENDBRANCH  33  40
ENDBRANCH  29  39
ENDBRANCH   1  31
BRANCH   1  51
ATOM     51  CB  THR A   4      14.278   6.093  -7.630  0.00  0.00    +0.137 C 
ATOM     52  CG2 THR A   4      15.406   7.099  -7.570  0.00  0.00    +0.034 C 
BRANCH  51  53
ATOM     53  OG1 THR A   4      14.374   5.118  -6.567  0.00  0.00    -0.382 OA
ATOM     54  HG1 THR A   4      15.258   4.674  -6.607  0.00  0.00    +0.210 HD
ENDBRANCH  51  53
ENDBRANCH   1  51
TORSDOF 19
REMARK  Name = ../refined-set-2016/3ivc/3ivc_pocket.pdb
REMARK  212 active torsions:
REMARK  status: ('A' for Active; 'I' for Inactive)
REMARK    1  A    between atoms: _1  and  _3
REMARK    2  A    between atoms: _3  and  _4
REMARK    3  A    between atoms: _3  and  _6
REMARK    4  A    between atoms: _10  and  _11
REMARK    5  A    between atoms: _16  and  _18
REMARK    6  A    between atoms: _18  and  _19
REMARK    7  A    between atoms: _18  and  _21
REMARK    8  A    between atoms: _21  and  _22
REMARK    9  A    between atoms: _25  and  _27
REMARK   10  A    between atoms: _27  and  _28
REMARK   11  A    between atoms: _27  and  _30
REMARK   12  A    between atoms: _30  and  _31
REMARK   13  A    between atoms: _31  and  _32
REMARK   14  A    between atoms: _34  and  _36
REMARK   15  A    between atoms: _36  and  _37
REMARK   16  A    between atoms: _39  and  _41
REMARK   17  A    between atoms: _41  and  _42
REMARK   18  A    between atoms: _45  and  _47
REMARK   19  A    between atoms: _47  and  _48
REMARK   20  A    between atoms: _47  and  _50
REMARK   21  A    between atoms: _50  and  _51
REMARK   22  A    between atoms: _54  and  _56
REMARK   23  A    between atoms: _56  and  _57
REMARK   24  A    between atoms: _56  and  _59
REMARK   25  A    between atoms: _59  and  _60
REMARK   26  A    between atoms: _65  and  _67
REMARK   27  A    between atoms: _67  and  _68
REMARK   28  A    between atoms: _67  and  _70
REMARK   29  A    between atoms: _70  and  _71
REMARK   30  A    between atoms: _71  and  _72
REMARK   31  A    between atoms: _75  and  _77
REMARK   32  A    between atoms: _77  and  _78
REMARK   33  A    between atoms: _80  and  _82
REMARK   34  A    between atoms: _82  and  _83
REMARK   35  A    between atoms: _82  and  _85
REMARK   36  A    between atoms: _85  and  _86
REMARK   37  A    between atoms: _91  and  _93
REMARK   38  A    between atoms: _93  and  _94
REMARK   39  A    between atoms: _93  and  _96
REMARK   40  A    between atoms: _96  and  _97
REMARK   41  A    between atoms: _100  and  _102
REMARK   42  A    between atoms: _102  and  _103
REMARK   43  A    between atoms: _106  and  _108
REMARK   44  A    between atoms: _108  and  _109
REMARK   45  A    between atoms: _108  and  _111
REMARK   46  A    between atoms: _111  and  _112
REMARK   47  A    between atoms: _115  and  _117
REMARK   48  A    between atoms: _117  and  _118
REMARK   49  A    between atoms: _117  and  _120
REMARK   50  A    between atoms: _123  and  _125
REMARK   51  A    between atoms: _125  and  _126
REMARK   52  A    between atoms: _125  and  _128
REMARK   53  A    between atoms: _128  and  _129
REMARK   54  A    between atoms: _131  and  _133
REMARK   55  A    between atoms: _133  and  _134
REMARK   56  A    between atoms: _133  and  _136
REMARK   57  A    between atoms: _136  and  _137
REMARK   58  A    between atoms: _140  and  _142
REMARK   59  A    between atoms: _142  and  _143
REMARK   60  A    between atoms: _142  and  _145
REMARK   61  A    between atoms: _145  and  _146
REMARK   62  A    between atoms: _152  and  _154
REMARK   63  A    between atoms: _154  and  _155
REMARK   64  A    between atoms: _154  and  _157
REMARK   65  A    between atoms: _157  and  _158
REMARK   66  A    between atoms: _163  and  _165
REMARK   67  A    between atoms: _165  and  _166
REMARK   68  A    between atoms: _165  and  _168
REMARK   69  A    between atoms: _168  and  _169
REMARK   70  A    between atoms: _169  and  _170
REMARK   71  A    between atoms: _175  and  _177
REMARK   72  A    between atoms: _177  and  _178
REMARK   73  A    between atoms: _177  and  _180
REMARK   74  A    between atoms: _180  and  _181
REMARK   75  A    between atoms: _186  and  _187
REMARK   76  A    between atoms: _189  and  _191
REMARK   77  A    between atoms: _191  and  _192
REMARK   78  A    between atoms: _191  and  _194
REMARK   79  A    between atoms: _194  and  _195
REMARK   80  A    between atoms: _200  and  _202
REMARK   81  A    between atoms: _202  and  _203
REMARK   82  A    between atoms: _202  and  _205
REMARK   83  A    between atoms: _205  and  _206
REMARK   84  A    between atoms: _212  and  _214
REMARK   85  A    between atoms: _214  and  _215
REMARK   86  A    between atoms: _217  and  _219
REMARK   87  A    between atoms: _219  and  _220
REMARK   88  A    between atoms: _219  and  _222
REMARK   89  A    between atoms: _225  and  _227
REMARK   90  A    between atoms: _227  and  _228
REMARK   91  A    between atoms: _227  and  _230
REMARK   92  A    between atoms: _230  and  _231
REMARK   93  A    between atoms: _234  and  _236
REMARK   94  A    between atoms: _236  and  _237
REMARK   95  A    between atoms: _236  and  _239
REMARK   96  A    between atoms: _242  and  _244
REMARK   97  A    between atoms: _244  and  _245
REMARK   98  A    between atoms: _244  and  _247
REMARK   99  A    between atoms: _250  and  _252
REMARK  100  A    between atoms: _252  and  _253
REMARK  101  A    between atoms: _252  and  _255
REMARK  102  A    between atoms: _255  and  _256
REMARK  103  A    between atoms: _259  and  _261
REMARK  104  A    between atoms: _261  and  _262
REMARK  105  A    between atoms: _261  and  _264
REMARK  106  A    between atoms: _264  and  _265
REMARK  107  A    between atoms: _268  and  _270
REMARK  108  A    between atoms: _270  and  _271
REMARK  109  A    between atoms: _270  and  _273
REMARK  110  A    between atoms: _276  and  _278
REMARK  111  A    between atoms: _278  and  _279
REMARK  112  A    between atoms: _278  and  _281
REMARK  113  A    between atoms: _281  and  _282
REMARK  114  A    between atoms: _288  and  _290
REMARK  115  A    between atoms: _290  and  _291
REMARK  116  A    between atoms: _290  and  _293
REMARK  117  A    between atoms: _293  and  _294
REMARK  118  A    between atoms: _300  and  _302
REMARK  119  A    between atoms: _302  and  _303
REMARK  120  A    between atoms: _305  and  _307
REMARK  121  A    between atoms: _307  and  _308
REMARK  122  A    between atoms: _307  and  _310
REMARK  123  A    between atoms: _310  and  _311
REMARK  124  A    between atoms: _311  and  _312
REMARK  125  A    between atoms: _315  and  _317
REMARK  126  A    between atoms: _317  and  _318
REMARK  127  A    between atoms: _317  and  _320
REMARK  128  A    between atoms: _320  and  _321
REMARK  129  A    between atoms: _321  and  _322
REMARK  130  A    between atoms: _322  and  _323
REMARK  131  A    between atoms: _323  and  _324
REMARK  132  A    between atoms: _328  and  _330
REMARK  133  A    between atoms: _330  and  _331
REMARK  134  A    between atoms: _330  and  _333
REMARK  135  A    between atoms: _333  and  _334
REMARK  136  A    between atoms: _337  and  _339
REMARK  137  A    between atoms: _339  and  _340
REMARK  138  A    between atoms: _339  and  _342
REMARK  139  A    between atoms: _342  and  _343
REMARK  140  A    between atoms: _343  and  _344
REMARK  141  A    between atoms: _349  and  _351
REMARK  142  A    between atoms: _351  and  _352
REMARK  143  A    between atoms: _351  and  _354
REMARK  144  A    between atoms: _354  and  _355
REMARK  145  A    between atoms: _358  and  _360
REMARK  146  A    between atoms: _360  and  _361
REMARK  147  A    between atoms: _363  and  _365
REMARK  148  A    between atoms: _365  and  _366
REMARK  149  A    between atoms: _365  and  _368
REMARK  150  A    between atoms: _372  and  _373
REMARK  151  A    between atoms: _378  and  _380
REMARK  152  A    between atoms: _380  and  _381
REMARK  153  A    between atoms: _380  and  _383
REMARK  154  A    between atoms: _383  and  _384
REMARK  155  A    between atoms: _387  and  _389
REMARK  156  A    between atoms: _389  and  _390
REMARK  157  A    between atoms: _389  and  _392
REMARK  158  A    between atoms: _395  and  _397
REMARK  159  A    between atoms: _397  and  _398
REMARK  160  A    between atoms: _397  and  _400
REMARK  161  A    between atoms: _400  and  _401
REMARK  162  A    between atoms: _401  and  _402
REMARK  163  A    between atoms: _402  and  _403
REMARK  164  A    between atoms: _412  and  _414
REMARK  165  A    between atoms: _414  and  _415
REMARK  166  A    between atoms: _414  and  _417
REMARK  167  A    between atoms: _417  and  _418
REMARK  168  A    between atoms: _421  and  _423
REMARK  169  A    between atoms: _423  and  _424
REMARK  170  A    between atoms: _427  and  _429
REMARK  171  A    between atoms: _429  and  _430
REMARK  172  A    between atoms: _429  and  _432
REMARK  173  A    between atoms: _432  and  _433
REMARK  174  A    between atoms: _433  and  _434
REMARK  175  A    between atoms: _436  and  _438
REMARK  176  A    between atoms: _438  and  _439
REMARK  177  A    between atoms: _438  and  _441
REMARK  178  A    between atoms: _441  and  _442
REMARK  179  A    between atoms: _444  and  _446
REMARK  180  A    between atoms: _446  and  _447
REMARK  181  A    between atoms: _446  and  _449
REMARK  182  A    between atoms: _449  and  _450
REMARK  183  A    between atoms: _452  and  _454
REMARK  184  A    between atoms: _454  and  _455
REMARK  185  A    between atoms: _454  and  _457
REMARK  186  A    between atoms: _457  and  _458
REMARK  187  A    between atoms: _458  and  _459
REMARK  188  A    between atoms: _459  and  _460
REMARK  189  A    between atoms: _469  and  _471
REMARK  190  A    between atoms: _471  and  _472
REMARK  191  A    between atoms: _471  and  _474
REMARK  192  A    between atoms: _474  and  _475
REMARK  193  A    between atoms: _480  and  _482
REMARK  194  A    between atoms: _482  and  _483
REMARK  195  A    between atoms: _482  and  _485
REMARK  196  A    between atoms: _485  and  _486
REMARK  197  A    between atoms: _486  and  _487
REMARK  198  A    between atoms: _487  and  _488
REMARK  199  A    between atoms: _497  and  _499
REMARK  200  A    between atoms: _499  and  _500
REMARK  201  A    between atoms: _499  and  _502
REMARK  202  A    between atoms: _502  and  _503
REMARK  203  A    between atoms: _503  and  _504
REMARK  204  A    between atoms: _504  and  _505
REMARK  205  A    between atoms: _514  and  _516
REMARK  206  A    between atoms: _516  and  _517
REMARK  207  A    between atoms: _516  and  _519
REMARK  208  A    between atoms: _519  and  _520
REMARK  209  A    between atoms: _523  and  _525
REMARK  210  A    between atoms: _525  and  _526
REMARK  211  A    between atoms: _525  and  _528
REMARK  212  A    between atoms: _528  and  _529
REMARK                            x       y       z     vdW  Elec       q    Type
REMARK                         _______ _______ _______ _____ _____    ______ ____
ROOT
ATOM      1  CA  ARG A   6      23.680  14.579  -1.189  0.00  0.00    +0.149 C 
ENDROOT
BRANCH   1   2
ATOM      2  C   ARG A   6      24.382  14.659  -2.545  0.00  0.00    +0.241 C 
ATOM      3  O   ARG A   6      25.621  14.646  -2.608  0.00  0.00    -0.273 OA
ATOM      4  N   ASN A   7      23.595  14.743  -3.619  0.00  0.00    -0.297 N 
ATOM      5  H   ASN A   7      22.565  14.700  -3.482  0.00  0.00    +0.150 HD
BRANCH   4   6
ATOM      6  CA  ASN A   7      24.114  14.893  -4.986  0.00  0.00    +0.158 C 
BRANCH   6   7
ATOM      7  C   ASN A   7      24.848  16.236  -5.196  0.00  0.00    +0.241 C 
ATOM      8  N   ARG A   8      24.476  17.220  -4.379  0.00  0.00    -0.298 N 
ATOM      9  H   ARG A   8      23.759  17.021  -3.652  0.00  0.00    +0.150 HD
ATOM     10  O   ASN A   7      25.703  16.388  -6.105  0.00  0.00    -0.273 OA
BRANCH   8  11
ATOM     11  CA  ARG A   8      25.041  18.585  -4.464  0.00  0.00    +0.137 C 
BRANCH  11  12
ATOM     12  C   ARG A   8      26.477  18.584  -3.999  0.00  0.00    +0.227 C 
ATOM     13  O   ARG A   8      27.243  19.485  -4.338  0.00  0.00    -0.286 OA
ENDBRANCH  11  12
BRANCH  11  14
ATOM     14  CB  ARG A   8      24.191  19.590  -3.639  0.00  0.00    +0.031 C 
BRANCH  14  15
ATOM     15  CG  ARG A   8      24.044  19.235  -2.152  0.00  0.00    +0.045 C 
BRANCH  15  16
ATOM     16  CD  ARG A   8      22.969  20.145  -1.507  0.00  0.00    +0.174 C 
BRANCH  16  17
ATOM     17  NE  ARG A   8      21.601  19.618  -1.721  0.00  0.00    -0.265 N 
ATOM     18  CZ  ARG A   8      20.474  20.257  -1.393  0.00  0.00    +0.342 C 
ATOM     19  NH2 ARG A   8      20.517  21.474  -0.839  0.00  0.00    -0.292 N 
ATOM     20 HH21 ARG A   8      19.634  21.962  -0.588  0.00  0.00    +0.255 HD
ATOM     21 HH22 ARG A   8      21.434  21.932  -0.660  0.00  0.00    +0.255 HD
ATOM     22  NH1 ARG A   8      19.293  19.677  -1.613  0.00  0.00    -0.292 N 
ATOM     23 HH11 ARG A   8      18.415  20.173  -1.358  0.00  0.00    +0.255 HD
ATOM     24 HH12 ARG A   8      19.250  18.729  -2.039  0.00  0.00    +0.255 HD
ATOM     25  HE  ARG A   8      21.511  18.679  -2.160  0.00  0.00    +0.259 HD
ENDBRANCH  16  17
ENDBRANCH  15  16
ENDBRANCH  14  15
ENDBRANCH  11  14
ENDBRANCH   8  11
ENDBRANCH   6   7
BRANCH   6  26
ATOM     26  CB  ASN A   7      22.953  14.798  -6.023  0.00  0.00    +0.114 C 
BRANCH  26  27
ATOM     27  CG  ASN A   7      22.518  13.349  -6.319  0.00  0.00    +0.222 C 
ATOM     28  OD1 ASN A   7      23.095  12.361  -5.832  0.00  0.00    -0.275 OA
ATOM     29  ND2 ASN A   7      21.464  13.234  -7.084  0.00  0.00    -0.329 N 
ATOM     30 HD21 ASN A   7      21.081  12.292  -7.304  0.00  0.00    +0.145 HD
ATOM     31 HD22 ASN A   7      21.009  14.084  -7.473  0.00  0.00    +0.145 HD
ENDBRANCH  26  27
ENDBRANCH   6  26
ENDBRANCH   4   6
ENDBRANCH   1   2
BRANCH   1  33
ATOM     32  C   SER A   5      21.536  15.786  -1.255  0.00  0.00    +0.243 C 
ATOM     33  N   ARG A   6      22.200  14.631  -1.219  0.00  0.00    -0.297 N 
ATOM     34  H   ARG A   6      21.663  13.740  -1.212  0.00  0.00    +0.150 HD
ATOM     35  O   SER A   5      22.094  16.869  -1.356  0.00  0.00    -0.273 OA
BRANCH  32  36
ATOM     36  CA  SER A   5      20.007  15.709  -1.223  0.00  0.00    +0.178 C 
BRANCH  36  38
ATOM     37  C   SER A   4      19.887  14.053  -3.036  0.00  0.00    +0.243 C 
ATOM     38  N   SER A   5      19.567  14.418  -1.788  0.00  0.00    -0.295 N 
ATOM     39  H   SER A   5      18.995  13.777  -1.203  0.00  0.00    +0.150 HD
ATOM     40  O   SER A   4      20.523  14.770  -3.843  0.00  0.00    -0.273 OA
BRANCH  37  41
ATOM     41  CA  SER A   4      19.422  12.670  -3.442  0.00  0.00    +0.178 C 
BRANCH  41  43
ATOM     42  C   MET A   3      18.245  11.822  -5.395  0.00  0.00    +0.241 C 
ATOM     43  N   SER A   4      19.020  12.733  -4.832  0.00  0.00    -0.295 N 
ATOM     44  H   SER A   4      19.355  13.529  -5.412  0.00  0.00    +0.150 HD
ATOM     45  O   MET A   3      17.928  10.757  -4.837  0.00  0.00    -0.273 OA
BRANCH  42  46
ATOM     46  CA  MET A   3      17.853  12.123  -6.837  0.00  0.00    +0.149 C 
BRANCH  46  49
ATOM     47  C   ALA A   2      18.978  10.266  -7.870  0.00  0.00    +0.241 C 
ATOM     48  O   ALA A   2      20.111  10.655  -7.454  0.00  0.00    -0.273 OA
ATOM     49  N   MET A   3      17.842  10.936  -7.673  0.00  0.00    -0.297 N 
ATOM     50  H   MET A   3      16.957  10.612  -8.114  0.00  0.00    +0.150 HD
BRANCH  47  51
ATOM     51  CA  ALA A   2      18.838   8.977  -8.667  0.00  0.00    +0.149 C 
ATOM     52  CB  ALA A   2      19.023   7.754  -7.737  0.00  0.00    +0.031 C 
BRANCH  51  54
ATOM     53  C   LEU A   1      19.881   9.906 -10.669  0.00  0.00    +0.238 C 
ATOM     54  N   ALA A   2      19.817   8.973  -9.721  0.00  0.00    -0.297 N 
ATOM     55  H   ALA A   2      20.512   8.200  -9.744  0.00  0.00    +0.150 HD
ATOM     56  O   LEU A   1      19.063  10.826 -10.809  0.00  0.00    -0.274 OA
BRANCH  53  57
ATOM     57  CA  LEU A   1      21.070   9.808 -11.620  0.00  0.00    +0.145 C 
BRANCH  57  58
ATOM     58  N   LEU A   1      20.624   9.836 -13.006  0.00  0.00    -0.238 NA
ATOM     59  H   LEU A   1      20.921  10.603 -13.642  0.00  0.00    +0.142 HD
ENDBRANCH  57  58
BRANCH  57  60
ATOM     60  CB  LEU A   1      22.034  10.946 -11.338  0.00  0.00    +0.026 C 
BRANCH  60  61
ATOM     61  CG  LEU A   1      22.713  11.066  -9.973  0.00  0.00    +0.002 C 
ATOM     62  CD2 LEU A   1      23.586   9.902  -9.608  0.00  0.00    +0.000 C 
ATOM     63  CD1 LEU A   1      23.548  12.323 -10.013  0.00  0.00    +0.000 C 
ENDBRANCH  60  61
ENDBRANCH  57  60
ENDBRANCH  53  57
ENDBRANCH  51  54
ENDBRANCH  47  51
ENDBRANCH  46  49
BRANCH  46  64
ATOM     64  CB  MET A   3      16.549  12.905  -6.921  0.00  0.00    +0.041 C 
BRANCH  64  65
ATOM     65  CG  MET A   3      16.472  13.650  -8.264  0.00  0.00    +0.060 C 
BRANCH  65  66
ATOM     66  SD  MET A   3      15.227  14.945  -8.333  0.00  0.00    -0.139 S 
ATOM     67  CE  MET A   3      15.113  15.318 -10.127  0.00  0.00    +0.069 C 
ENDBRANCH  65  66
ENDBRANCH  64  65
ENDBRANCH  46  64
ENDBRANCH  42  46
ENDBRANCH  41  43
BRANCH  41  68
ATOM     68  CB  SER A   4      20.526  11.646  -3.231  0.00  0.00    +0.166 C 
BRANCH  68  69
ATOM     69  OG  SER A   4      21.222  11.861  -1.990  0.00  0.00    -0.380 OA
ATOM     70  H   SER A   4      20.582  11.790  -1.238  0.00  0.00    +0.211 HD
ENDBRANCH  68  69
ENDBRANCH  41  68
ENDBRANCH  37  41
ENDBRANCH  36  38
BRANCH  36  71
ATOM     71  CB  SER A   5      19.493  15.905   0.220  0.00  0.00    +0.166 C 
BRANCH  71  72
ATOM     72  OG  SER A   5      18.058  15.819   0.298  0.00  0.00    -0.380 OA
ATOM     73  H   SER A   5      17.655  16.521  -0.272  0.00  0.00    +0.211 HD
ENDBRANCH  71  72
ENDBRANCH  36  71
ENDBRANCH  32  36
ENDBRANCH   1  33
BRANCH   1  74
ATOM     74  CB  ARG A   6      24.174  13.383  -0.364  0.00  0.00    +0.033 C 
BRANCH  74  75
ATOM     75  CG  ARG A   6      23.854  13.587   1.156  0.00  0.00    +0.045 C 
BRANCH  75  76
ATOM     76  CD  ARG A   6      24.666  12.683   2.109  0.00  0.00    +0.174 C 
BRANCH  76  77
ATOM     77  NE  ARG A   6      23.808  11.625   2.611  0.00  0.00    -0.265 N 
ATOM     78  CZ  ARG A   6      23.672  11.274   3.883  0.00  0.00    +0.342 C 
ATOM     79  NH2 ARG A   6      24.378  11.861   4.848  0.00  0.00    -0.292 N 
ATOM     80 HH21 ARG A   6      24.252  11.566   5.837  0.00  0.00    +0.255 HD
ATOM     81 HH22 ARG A   6      25.056  12.614   4.612  0.00  0.00    +0.255 HD
ATOM     82  NH1 ARG A   6      22.836  10.292   4.178  0.00  0.00    -0.292 N 
ATOM     83 HH11 ARG A   6      22.710   9.996   5.167  0.00  0.00    +0.255 HD
ATOM     84 HH12 ARG A   6      22.305   9.816   3.421  0.00  0.00    +0.255 HD
ATOM     85  HE  ARG A   6      23.250  11.095   1.911  0.00  0.00    +0.259 HD
ENDBRANCH  76  77
ENDBRANCH  75  76
ENDBRANCH  74  75
ENDBRANCH   1  74
TORSDOF 35
REMARK  Name = ../refined-set-2016/3ivc/3ivc_pocket.pdb
REMARK  212 active torsions:
REMARK  status: ('A' for Active; 'I' for Inactive)
REMARK    1  A    between atoms: _1  and  _3
REMARK    2  A    between atoms: _3  and  _4
REMARK    3  A    between atoms: _3  and  _6
REMARK    4  A    between atoms: _10  and  _11
REMARK    5  A    between atoms: _16  and  _18
REMARK    6  A    between atoms: _18  and  _19
REMARK    7  A    between atoms: _18  and  _21
REMARK    8  A    between atoms: _21  and  _22
REMARK    9  A    between atoms: _25  and  _27
REMARK   10  A    between atoms: _27  and  _28
REMARK   11  A    between atoms: _27  and  _30
REMARK   12  A    between atoms: _30  and  _31
REMARK   13  A    between atoms: _31  and  _32
REMARK   14  A    between atoms: _34  and  _36
REMARK   15  A    between atoms: _36  and  _37
REMARK   16  A    between atoms: _39  and  _41
REMARK   17  A    between atoms: _41  and  _42
REMARK   18  A    between atoms: _45  and  _47
REMARK   19  A    between atoms: _47  and  _48
REMARK   20  A    between atoms: _47  and  _50
REMARK   21  A    between atoms: _50  and  _51
REMARK   22  A    between atoms: _54  and  _56
REMARK   23  A    between atoms: _56  and  _57
REMARK   24  A    between atoms: _56  and  _59
REMARK   25  A    between atoms: _59  and  _60
REMARK   26  A    between atoms: _65  and  _67
REMARK   27  A    between atoms: _67  and  _68
REMARK   28  A    between atoms: _67  and  _70
REMARK   29  A    between atoms: _70  and  _71
REMARK   30  A    between atoms: _71  and  _72
REMARK   31  A    between atoms: _75  and  _77
REMARK   32  A    between atoms: _77  and  _78
REMARK   33  A    between atoms: _80  and  _82
REMARK   34  A    between atoms: _82  and  _83
REMARK   35  A    between atoms: _82  and  _85
REMARK   36  A    between atoms: _85  and  _86
REMARK   37  A    between atoms: _91  and  _93
REMARK   38  A    between atoms: _93  and  _94
REMARK   39  A    between atoms: _93  and  _96
REMARK   40  A    between atoms: _96  and  _97
REMARK   41  A    between atoms: _100  and  _102
REMARK   42  A    between atoms: _102  and  _103
REMARK   43  A    between atoms: _106  and  _108
REMARK   44  A    between atoms: _108  and  _109
REMARK   45  A    between atoms: _108  and  _111
REMARK   46  A    between atoms: _111  and  _112
REMARK   47  A    between atoms: _115  and  _117
REMARK   48  A    between atoms: _117  and  _118
REMARK   49  A    between atoms: _117  and  _120
REMARK   50  A    between atoms: _123  and  _125
REMARK   51  A    between atoms: _125  and  _126
REMARK   52  A    between atoms: _125  and  _128
REMARK   53  A    between atoms: _128  and  _129
REMARK   54  A    between atoms: _131  and  _133
REMARK   55  A    between atoms: _133  and  _134
REMARK   56  A    between atoms: _133  and  _136
REMARK   57  A    between atoms: _136  and  _137
REMARK   58  A    between atoms: _140  and  _142
REMARK   59  A    between atoms: _142  and  _143
REMARK   60  A    between atoms: _142  and  _145
REMARK   61  A    between atoms: _145  and  _146
REMARK   62  A    between atoms: _152  and  _154
REMARK   63  A    between atoms: _154  and  _155
REMARK   64  A    between atoms: _154  and  _157
REMARK   65  A    between atoms: _157  and  _158
REMARK   66  A    between atoms: _163  and  _165
REMARK   67  A    between atoms: _165  and  _166
REMARK   68  A    between atoms: _165  and  _168
REMARK   69  A    between atoms: _168  and  _169
REMARK   70  A    between atoms: _169  and  _170
REMARK   71  A    between atoms: _175  and  _177
REMARK   72  A    between atoms: _177  and  _178
REMARK   73  A    between atoms: _177  and  _180
REMARK   74  A    between atoms: _180  and  _181
REMARK   75  A    between atoms: _186  and  _187
REMARK   76  A    between atoms: _189  and  _191
REMARK   77  A    between atoms: _191  and  _192
REMARK   78  A    between atoms: _191  and  _194
REMARK   79  A    between atoms: _194  and  _195
REMARK   80  A    between atoms: _200  and  _202
REMARK   81  A    between atoms: _202  and  _203
REMARK   82  A    between atoms: _202  and  _205
REMARK   83  A    between atoms: _205  and  _206
REMARK   84  A    between atoms: _212  and  _214
REMARK   85  A    between atoms: _214  and  _215
REMARK   86  A    between atoms: _217  and  _219
REMARK   87  A    between atoms: _219  and  _220
REMARK   88  A    between atoms: _219  and  _222
REMARK   89  A    between atoms: _225  and  _227
REMARK   90  A    between atoms: _227  and  _228
REMARK   91  A    between atoms: _227  and  _230
REMARK   92  A    between atoms: _230  and  _231
REMARK   93  A    between atoms: _234  and  _236
REMARK   94  A    between atoms: _236  and  _237
REMARK   95  A    between atoms: _236  and  _239
REMARK   96  A    between atoms: _242  and  _244
REMARK   97  A    between atoms: _244  and  _245
REMARK   98  A    between atoms: _244  and  _247
REMARK   99  A    between atoms: _250  and  _252
REMARK  100  A    between atoms: _252  and  _253
REMARK  101  A    between atoms: _252  and  _255
REMARK  102  A    between atoms: _255  and  _256
REMARK  103  A    between atoms: _259  and  _261
REMARK  104  A    between atoms: _261  and  _262
REMARK  105  A    between atoms: _261  and  _264
REMARK  106  A    between atoms: _264  and  _265
REMARK  107  A    between atoms: _268  and  _270
REMARK  108  A    between atoms: _270  and  _271
REMARK  109  A    between atoms: _270  and  _273
REMARK  110  A    between atoms: _276  and  _278
REMARK  111  A    between atoms: _278  and  _279
REMARK  112  A    between atoms: _278  and  _281
REMARK  113  A    between atoms: _281  and  _282
REMARK  114  A    between atoms: _288  and  _290
REMARK  115  A    between atoms: _290  and  _291
REMARK  116  A    between atoms: _290  and  _293
REMARK  117  A    between atoms: _293  and  _294
REMARK  118  A    between atoms: _300  and  _302
REMARK  119  A    between atoms: _302  and  _303
REMARK  120  A    between atoms: _305  and  _307
REMARK  121  A    between atoms: _307  and  _308
REMARK  122  A    between atoms: _307  and  _310
REMARK  123  A    between atoms: _310  and  _311
REMARK  124  A    between atoms: _311  and  _312
REMARK  125  A    between atoms: _315  and  _317
REMARK  126  A    between atoms: _317  and  _318
REMARK  127  A    between atoms: _317  and  _320
REMARK  128  A    between atoms: _320  and  _321
REMARK  129  A    between atoms: _321  and  _322
REMARK  130  A    between atoms: _322  and  _323
REMARK  131  A    between atoms: _323  and  _324
REMARK  132  A    between atoms: _328  and  _330
REMARK  133  A    between atoms: _330  and  _331
REMARK  134  A    between atoms: _330  and  _333
REMARK  135  A    between atoms: _333  and  _334
REMARK  136  A    between atoms: _337  and  _339
REMARK  137  A    between atoms: _339  and  _340
REMARK  138  A    between atoms: _339  and  _342
REMARK  139  A    between atoms: _342  and  _343
REMARK  140  A    between atoms: _343  and  _344
REMARK  141  A    between atoms: _349  and  _351
REMARK  142  A    between atoms: _351  and  _352
REMARK  143  A    between atoms: _351  and  _354
REMARK  144  A    between atoms: _354  and  _355
REMARK  145  A    between atoms: _358  and  _360
REMARK  146  A    between atoms: _360  and  _361
REMARK  147  A    between atoms: _363  and  _365
REMARK  148  A    between atoms: _365  and  _366
REMARK  149  A    between atoms: _365  and  _368
REMARK  150  A    between atoms: _372  and  _373
REMARK  151  A    between atoms: _378  and  _380
REMARK  152  A    between atoms: _380  and  _381
REMARK  153  A    between atoms: _380  and  _383
REMARK  154  A    between atoms: _383  and  _384
REMARK  155  A    between atoms: _387  and  _389
REMARK  156  A    between atoms: _389  and  _390
REMARK  157  A    between atoms: _389  and  _392
REMARK  158  A    between atoms: _395  and  _397
REMARK  159  A    between atoms: _397  and  _398
REMARK  160  A    between atoms: _397  and  _400
REMARK  161  A    between atoms: _400  and  _401
REMARK  162  A    between atoms: _401  and  _402
REMARK  163  A    between atoms: _402  and  _403
REMARK  164  A    between atoms: _412  and  _414
REMARK  165  A    between atoms: _414  and  _415
REMARK  166  A    between atoms: _414  and  _417
REMARK  167  A    between atoms: _417  and  _418
REMARK  168  A    between atoms: _421  and  _423
REMARK  169  A    between atoms: _423  and  _424
REMARK  170  A    between atoms: _427  and  _429
REMARK  171  A    between atoms: _429  and  _430
REMARK  172  A    between atoms: _429  and  _432
REMARK  173  A    between atoms: _432  and  _433
REMARK  174  A    between atoms: _433  and  _434
REMARK  175  A    between atoms: _436  and  _438
REMARK  176  A    between atoms: _438  and  _439
REMARK  177  A    between atoms: _438  and  _441
REMARK  178  A    between atoms: _441  and  _442
REMARK  179  A    between atoms: _444  and  _446
REMARK  180  A    between atoms: _446  and  _447
REMARK  181  A    between atoms: _446  and  _449
REMARK  182  A    between atoms: _449  and  _450
REMARK  183  A    between atoms: _452  and  _454
REMARK  184  A    between atoms: _454  and  _455
REMARK  185  A    between atoms: _454  and  _457
REMARK  186  A    between atoms: _457  and  _458
REMARK  187  A    between atoms: _458  and  _459
REMARK  188  A    between atoms: _459  and  _460
REMARK  189  A    between atoms: _469  and  _471
REMARK  190  A    between atoms: _471  and  _472
REMARK  191  A    between atoms: _471  and  _474
REMARK  192  A    between atoms: _474  and  _475
REMARK  193  A    between atoms: _480  and  _482
REMARK  194  A    between atoms: _482  and  _483
REMARK  195  A    between atoms: _482  and  _485
REMARK  196  A    between atoms: _485  and  _486
REMARK  197  A    between atoms: _486  and  _487
REMARK  198  A    between atoms: _487  and  _488
REMARK  199  A    between atoms: _497  and  _499
REMARK  200  A    between atoms: _499  and  _500
REMARK  201  A    between atoms: _499  and  _502
REMARK  202  A    between atoms: _502  and  _503
REMARK  203  A    between atoms: _503  and  _504
REMARK  204  A    between atoms: _504  and  _505
REMARK  205  A    between atoms: _514  and  _516
REMARK  206  A    between atoms: _516  and  _517
REMARK  207  A    between atoms: _516  and  _519
REMARK  208  A    between atoms: _519  and  _520
REMARK  209  A    between atoms: _523  and  _525
REMARK  210  A    between atoms: _525  and  _526
REMARK  211  A    between atoms: _525  and  _528
REMARK  212  A    between atoms: _528  and  _529
REMARK                            x       y       z     vdW  Elec       q    Type
REMARK                         _______ _______ _______ _____ _____    ______ ____
ROOT
ATOM      1  C   ARG A   1      27.227   7.868  -1.796  0.00  0.00    +0.238 C 
ATOM      2  O   ARG A   1      26.383   8.635  -1.338  0.00  0.00    -0.274 OA
ATOM      3  N   LEU A   2      27.053   7.127  -2.883  0.00  0.00    -0.297 N 
ATOM      4  H   LEU A   2      27.856   6.561  -3.225  0.00  0.00    +0.150 HD
ENDROOT
BRANCH   1   5
ATOM      5  CA  ARG A   1      28.588   7.708  -1.143  0.00  0.00    +0.145 C 
BRANCH   5   6
ATOM      6  N   ARG A   1      29.209   8.987  -0.872  0.00  0.00    -0.238 NA
ATOM      7  H   ARG A   1      28.991   9.472   0.022  0.00  0.00    +0.142 HD
ENDBRANCH   5   6
BRANCH   5   8
ATOM      8  CB  ARG A   1      28.461   6.861   0.127  0.00  0.00    +0.030 C 
BRANCH   8   9
ATOM      9  CG  ARG A   1      29.678   6.069   0.363  0.00  0.00    +0.045 C 
BRANCH   9  10
ATOM     10  CD  ARG A   1      29.554   5.150   1.573  0.00  0.00    +0.174 C 
BRANCH  10  11
ATOM     11  NE  ARG A   1      29.122   3.781   1.258  0.00  0.00    -0.265 N 
ATOM     12  CZ  ARG A   1      27.909   3.315   1.532  0.00  0.00    +0.342 C 
ATOM     13  NH2 ARG A   1      27.024   4.137   2.082  0.00  0.00    -0.292 N 
ATOM     14 HH21 ARG A   1      26.067   3.796   2.306  0.00  0.00    +0.255 HD
ATOM     15 HH22 ARG A   1      27.287   5.122   2.289  0.00  0.00    +0.255 HD
ATOM     16  NH1 ARG A   1      27.592   2.044   1.273  0.00  0.00    -0.292 N 
ATOM     17 HH11 ARG A   1      26.639   1.691   1.492  0.00  0.00    +0.255 HD
ATOM     18 HH12 ARG A   1      28.298   1.407   0.852  0.00  0.00    +0.255 HD
ATOM     19  HE  ARG A   1      29.802   3.144   0.796  0.00  0.00    +0.259 HD
ENDBRANCH  10  11
ENDBRANCH   9  10
ENDBRANCH   8   9
ENDBRANCH   5   8
ENDBRANCH   1   5
BRANCH   3  20
ATOM     20  CA  LEU A   2      25.804   7.061  -3.623  0.00  0.00    +0.149 C 
BRANCH  20  21
ATOM     21  C   LEU A   2      25.221   5.662  -3.608  0.00  0.00    +0.241 C 
ATOM     22  N   LEU A   3      23.889   5.601  -3.539  0.00  0.00    -0.298 N 
ATOM     23  H   LEU A   3      23.356   6.482  -3.391  0.00  0.00    +0.150 HD
ATOM     24  O   LEU A   2      25.959   4.661  -3.653  0.00  0.00    -0.273 OA
BRANCH  22  25
ATOM     25  CA  LEU A   3      23.151   4.351  -3.662  0.00  0.00    +0.137 C 
BRANCH  25  26
ATOM     26  C   LEU A   3      22.196   4.430  -4.841  0.00  0.00    +0.227 C 
ATOM     27  O   LEU A   3      21.777   5.541  -5.253  0.00  0.00    -0.286 OA
ENDBRANCH  25  26
BRANCH  25  28
ATOM     28  CB  LEU A   3      22.354   4.059  -2.361  0.00  0.00    +0.028 C 
BRANCH  28  29
ATOM     29  CG  LEU A   3      22.910   4.319  -0.958  0.00  0.00    +0.002 C 
ATOM     30  CD2 LEU A   3      22.040   3.573   0.140  0.00  0.00    +0.000 C 
ATOM     31  CD1 LEU A   3      24.407   3.959  -0.806  0.00  0.00    +0.000 C 
ENDBRANCH  28  29
ENDBRANCH  25  28
ENDBRANCH  22  25
ENDBRANCH  20  21
BRANCH  20  32
ATOM     32  CB  LEU A   2      26.035   7.511  -5.066  0.00  0.00    +0.029 C 
BRANCH  32  33
ATOM     33  CG  LEU A   2      26.597   8.951  -5.215  0.00  0.00    +0.002 C 
ATOM     34  CD2 LEU A   2      25.728  10.011  -4.514  0.00  0.00    +0.000 C 
ATOM     35  CD1 LEU A   2      26.769   9.293  -6.680  0.00  0.00    +0.000 C 
ENDBRANCH  32  33
ENDBRANCH  20  32
ENDBRANCH   3  20
TORSDOF 14
REMARK  Name = ../refined-set-2016/3ivc/3ivc_pocket.pdb
REMARK  212 active torsions:
REMARK  status: ('A' for Active; 'I' for Inactive)
REMARK    1  A    between atoms: _1  and  _3
REMARK    2  A    between atoms: _3  and  _4
REMARK    3  A    between atoms: _3  and  _6
REMARK    4  A    between atoms: _10  and  _11
REMARK    5  A    between atoms: _16  and  _18
REMARK    6  A    between atoms: _18  and  _19
REMARK    7  A    between atoms: _18  and  _21
REMARK    8  A    between atoms: _21  and  _22
REMARK    9  A    between atoms: _25  and  _27
REMARK   10  A    between atoms: _27  and  _28
REMARK   11  A    between atoms: _27  and  _30
REMARK   12  A    between atoms: _30  and  _31
REMARK   13  A    between atoms: _31  and  _32
REMARK   14  A    between atoms: _34  and  _36
REMARK   15  A    between atoms: _36  and  _37
REMARK   16  A    between atoms: _39  and  _41
REMARK   17  A    between atoms: _41  and  _42
REMARK   18  A    between atoms: _45  and  _47
REMARK   19  A    between atoms: _47  and  _48
REMARK   20  A    between atoms: _47  and  _50
REMARK   21  A    between atoms: _50  and  _51
REMARK   22  A    between atoms: _54  and  _56
REMARK   23  A    between atoms: _56  and  _57
REMARK   24  A    between atoms: _56  and  _59
REMARK   25  A    between atoms: _59  and  _60
REMARK   26  A    between atoms: _65  and  _67
REMARK   27  A    between atoms: _67  and  _68
REMARK   28  A    between atoms: _67  and  _70
REMARK   29  A    between atoms: _70  and  _71
REMARK   30  A    between atoms: _71  and  _72
REMARK   31  A    between atoms: _75  and  _77
REMARK   32  A    between atoms: _77  and  _78
REMARK   33  A    between atoms: _80  and  _82
REMARK   34  A    between atoms: _82  and  _83
REMARK   35  A    between atoms: _82  and  _85
REMARK   36  A    between atoms: _85  and  _86
REMARK   37  A    between atoms: _91  and  _93
REMARK   38  A    between atoms: _93  and  _94
REMARK   39  A    between atoms: _93  and  _96
REMARK   40  A    between atoms: _96  and  _97
REMARK   41  A    between atoms: _100  and  _102
REMARK   42  A    between atoms: _102  and  _103
REMARK   43  A    between atoms: _106  and  _108
REMARK   44  A    between atoms: _108  and  _109
REMARK   45  A    between atoms: _108  and  _111
REMARK   46  A    between atoms: _111  and  _112
REMARK   47  A    between atoms: _115  and  _117
REMARK   48  A    between atoms: _117  and  _118
REMARK   49  A    between atoms: _117  and  _120
REMARK   50  A    between atoms: _123  and  _125
REMARK   51  A    between atoms: _125  and  _126
REMARK   52  A    between atoms: _125  and  _128
REMARK   53  A    between atoms: _128  and  _129
REMARK   54  A    between atoms: _131  and  _133
REMARK   55  A    between atoms: _133  and  _134
REMARK   56  A    between atoms: _133  and  _136
REMARK   57  A    between atoms: _136  and  _137
REMARK   58  A    between atoms: _140  and  _142
REMARK   59  A    between atoms: _142  and  _143
REMARK   60  A    between atoms: _142  and  _145
REMARK   61  A    between atoms: _145  and  _146
REMARK   62  A    between atoms: _152  and  _154
REMARK   63  A    between atoms: _154  and  _155
REMARK   64  A    between atoms: _154  and  _157
REMARK   65  A    between atoms: _157  and  _158
REMARK   66  A    between atoms: _163  and  _165
REMARK   67  A    between atoms: _165  and  _166
REMARK   68  A    between atoms: _165  and  _168
REMARK   69  A    between atoms: _168  and  _169
REMARK   70  A    between atoms: _169  and  _170
REMARK   71  A    between atoms: _175  and  _177
REMARK   72  A    between atoms: _177  and  _178
REMARK   73  A    between atoms: _177  and  _180
REMARK   74  A    between atoms: _180  and  _181
REMARK   75  A    between atoms: _186  and  _187
REMARK   76  A    between atoms: _189  and  _191
REMARK   77  A    between atoms: _191  and  _192
REMARK   78  A    between atoms: _191  and  _194
REMARK   79  A    between atoms: _194  and  _195
REMARK   80  A    between atoms: _200  and  _202
REMARK   81  A    between atoms: _202  and  _203
REMARK   82  A    between atoms: _202  and  _205
REMARK   83  A    between atoms: _205  and  _206
REMARK   84  A    between atoms: _212  and  _214
REMARK   85  A    between atoms: _214  and  _215
REMARK   86  A    between atoms: _217  and  _219
REMARK   87  A    between atoms: _219  and  _220
REMARK   88  A    between atoms: _219  and  _222
REMARK   89  A    between atoms: _225  and  _227
REMARK   90  A    between atoms: _227  and  _228
REMARK   91  A    between atoms: _227  and  _230
REMARK   92  A    between atoms: _230  and  _231
REMARK   93  A    between atoms: _234  and  _236
REMARK   94  A    between atoms: _236  and  _237
REMARK   95  A    between atoms: _236  and  _239
REMARK   96  A    between atoms: _242  and  _244
REMARK   97  A    between atoms: _244  and  _245
REMARK   98  A    between atoms: _244  and  _247
REMARK   99  A    between atoms: _250  and  _252
REMARK  100  A    between atoms: _252  and  _253
REMARK  101  A    between atoms: _252  and  _255
REMARK  102  A    between atoms: _255  and  _256
REMARK  103  A    between atoms: _259  and  _261
REMARK  104  A    between atoms: _261  and  _262
REMARK  105  A    between atoms: _261  and  _264
REMARK  106  A    between atoms: _264  and  _265
REMARK  107  A    between atoms: _268  and  _270
REMARK  108  A    between atoms: _270  and  _271
REMARK  109  A    between atoms: _270  and  _273
REMARK  110  A    between atoms: _276  and  _278
REMARK  111  A    between atoms: _278  and  _279
REMARK  112  A    between atoms: _278  and  _281
REMARK  113  A    between atoms: _281  and  _282
REMARK  114  A    between atoms: _288  and  _290
REMARK  115  A    between atoms: _290  and  _291
REMARK  116  A    between atoms: _290  and  _293
REMARK  117  A    between atoms: _293  and  _294
REMARK  118  A    between atoms: _300  and  _302
REMARK  119  A    between atoms: _302  and  _303
REMARK  120  A    between atoms: _305  and  _307
REMARK  121  A    between atoms: _307  and  _308
REMARK  122  A    between atoms: _307  and  _310
REMARK  123  A    between atoms: _310  and  _311
REMARK  124  A    between atoms: _311  and  _312
REMARK  125  A    between atoms: _315  and  _317
REMARK  126  A    between atoms: _317  and  _318
REMARK  127  A    between atoms: _317  and  _320
REMARK  128  A    between atoms: _320  and  _321
REMARK  129  A    between atoms: _321  and  _322
REMARK  130  A    between atoms: _322  and  _323
REMARK  131  A    between atoms: _323  and  _324
REMARK  132  A    between atoms: _328  and  _330
REMARK  133  A    between atoms: _330  and  _331
REMARK  134  A    between atoms: _330  and  _333
REMARK  135  A    between atoms: _333  and  _334
REMARK  136  A    between atoms: _337  and  _339
REMARK  137  A    between atoms: _339  and  _340
REMARK  138  A    between atoms: _339  and  _342
REMARK  139  A    between atoms: _342  and  _343
REMARK  140  A    between atoms: _343  and  _344
REMARK  141  A    between atoms: _349  and  _351
REMARK  142  A    between atoms: _351  and  _352
REMARK  143  A    between atoms: _351  and  _354
REMARK  144  A    between atoms: _354  and  _355
REMARK  145  A    between atoms: _358  and  _360
REMARK  146  A    between atoms: _360  and  _361
REMARK  147  A    between atoms: _363  and  _365
REMARK  148  A    between atoms: _365  and  _366
REMARK  149  A    between atoms: _365  and  _368
REMARK  150  A    between atoms: _372  and  _373
REMARK  151  A    between atoms: _378  and  _380
REMARK  152  A    between atoms: _380  and  _381
REMARK  153  A    between atoms: _380  and  _383
REMARK  154  A    between atoms: _383  and  _384
REMARK  155  A    between atoms: _387  and  _389
REMARK  156  A    between atoms: _389  and  _390
REMARK  157  A    between atoms: _389  and  _392
REMARK  158  A    between atoms: _395  and  _397
REMARK  159  A    between atoms: _397  and  _398
REMARK  160  A    between atoms: _397  and  _400
REMARK  161  A    between atoms: _400  and  _401
REMARK  162  A    between atoms: _401  and  _402
REMARK  163  A    between atoms: _402  and  _403
REMARK  164  A    between atoms: _412  and  _414
REMARK  165  A    between atoms: _414  and  _415
REMARK  166  A    between atoms: _414  and  _417
REMARK  167  A    between atoms: _417  and  _418
REMARK  168  A    between atoms: _421  and  _423
REMARK  169  A    between atoms: _423  and  _424
REMARK  170  A    between atoms: _427  and  _429
REMARK  171  A    between atoms: _429  and  _430
REMARK  172  A    between atoms: _429  and  _432
REMARK  173  A    between atoms: _432  and  _433
REMARK  174  A    between atoms: _433  and  _434
REMARK  175  A    between atoms: _436  and  _438
REMARK  176  A    between atoms: _438  and  _439
REMARK  177  A    between atoms: _438  and  _441
REMARK  178  A    between atoms: _441  and  _442
REMARK  179  A    between atoms: _444  and  _446
REMARK  180  A    between atoms: _446  and  _447
REMARK  181  A    between atoms: _446  and  _449
REMARK  182  A    between atoms: _449  and  _450
REMARK  183  A    between atoms: _452  and  _454
REMARK  184  A    between atoms: _454  and  _455
REMARK  185  A    between atoms: _454  and  _457
REMARK  186  A    between atoms: _457  and  _458
REMARK  187  A    between atoms: _458  and  _459
REMARK  188  A    between atoms: _459  and  _460
REMARK  189  A    between atoms: _469  and  _471
REMARK  190  A    between atoms: _471  and  _472
REMARK  191  A    between atoms: _471  and  _474
REMARK  192  A    between atoms: _474  and  _475
REMARK  193  A    between atoms: _480  and  _482
REMARK  194  A    between atoms: _482  and  _483
REMARK  195  A    between atoms: _482  and  _485
REMARK  196  A    between atoms: _485  and  _486
REMARK  197  A    between atoms: _486  and  _487
REMARK  198  A    between atoms: _487  and  _488
REMARK  199  A    between atoms: _497  and  _499
REMARK  200  A    between atoms: _499  and  _500
REMARK  201  A    between atoms: _499  and  _502
REMARK  202  A    between atoms: _502  and  _503
REMARK  203  A    between atoms: _503  and  _504
REMARK  204  A    between atoms: _504  and  _505
REMARK  205  A    between atoms: _514  and  _516
REMARK  206  A    between atoms: _516  and  _517
REMARK  207  A    between atoms: _516  and  _519
REMARK  208  A    between atoms: _519  and  _520
REMARK  209  A    between atoms: _523  and  _525
REMARK  210  A    between atoms: _525  and  _526
REMARK  211  A    between atoms: _525  and  _528
REMARK  212  A    between atoms: _528  and  _529
REMARK                            x       y       z     vdW  Elec       q    Type
REMARK                         _______ _______ _______ _____ _____    ______ ____
ROOT
ATOM      1  O   HOH     1      19.202  15.370  -6.907  0.00  0.00    +0.000 OA
ENDROOT
TORSDOF 0
REMARK  Name = ../refined-set-2016/3ivc/3ivc_pocket.pdb
REMARK  212 active torsions:
REMARK  status: ('A' for Active; 'I' for Inactive)
REMARK    1  A    between atoms: _1  and  _3
REMARK    2  A    between atoms: _3  and  _4
REMARK    3  A    between atoms: _3  and  _6
REMARK    4  A    between atoms: _10  and  _11
REMARK    5  A    between atoms: _16  and  _18
REMARK    6  A    between atoms: _18  and  _19
REMARK    7  A    between atoms: _18  and  _21
REMARK    8  A    between atoms: _21  and  _22
REMARK    9  A    between atoms: _25  and  _27
REMARK   10  A    between atoms: _27  and  _28
REMARK   11  A    between atoms: _27  and  _30
REMARK   12  A    between atoms: _30  and  _31
REMARK   13  A    between atoms: _31  and  _32
REMARK   14  A    between atoms: _34  and  _36
REMARK   15  A    between atoms: _36  and  _37
REMARK   16  A    between atoms: _39  and  _41
REMARK   17  A    between atoms: _41  and  _42
REMARK   18  A    between atoms: _45  and  _47
REMARK   19  A    between atoms: _47  and  _48
REMARK   20  A    between atoms: _47  and  _50
REMARK   21  A    between atoms: _50  and  _51
REMARK   22  A    between atoms: _54  and  _56
REMARK   23  A    between atoms: _56  and  _57
REMARK   24  A    between atoms: _56  and  _59
REMARK   25  A    between atoms: _59  and  _60
REMARK   26  A    between atoms: _65  and  _67
REMARK   27  A    between atoms: _67  and  _68
REMARK   28  A    between atoms: _67  and  _70
REMARK   29  A    between atoms: _70  and  _71
REMARK   30  A    between atoms: _71  and  _72
REMARK   31  A    between atoms: _75  and  _77
REMARK   32  A    between atoms: _77  and  _78
REMARK   33  A    between atoms: _80  and  _82
REMARK   34  A    between atoms: _82  and  _83
REMARK   35  A    between atoms: _82  and  _85
REMARK   36  A    between atoms: _85  and  _86
REMARK   37  A    between atoms: _91  and  _93
REMARK   38  A    between atoms: _93  and  _94
REMARK   39  A    between atoms: _93  and  _96
REMARK   40  A    between atoms: _96  and  _97
REMARK   41  A    between atoms: _100  and  _102
REMARK   42  A    between atoms: _102  and  _103
REMARK   43  A    between atoms: _106  and  _108
REMARK   44  A    between atoms: _108  and  _109
REMARK   45  A    between atoms: _108  and  _111
REMARK   46  A    between atoms: _111  and  _112
REMARK   47  A    between atoms: _115  and  _117
REMARK   48  A    between atoms: _117  and  _118
REMARK   49  A    between atoms: _117  and  _120
REMARK   50  A    between atoms: _123  and  _125
REMARK   51  A    between atoms: _125  and  _126
REMARK   52  A    between atoms: _125  and  _128
REMARK   53  A    between atoms: _128  and  _129
REMARK   54  A    between atoms: _131  and  _133
REMARK   55  A    between atoms: _133  and  _134
REMARK   56  A    between atoms: _133  and  _136
REMARK   57  A    between atoms: _136  and  _137
REMARK   58  A    between atoms: _140  and  _142
REMARK   59  A    between atoms: _142  and  _143
REMARK   60  A    between atoms: _142  and  _145
REMARK   61  A    between atoms: _145  and  _146
REMARK   62  A    between atoms: _152  and  _154
REMARK   63  A    between atoms: _154  and  _155
REMARK   64  A    between atoms: _154  and  _157
REMARK   65  A    between atoms: _157  and  _158
REMARK   66  A    between atoms: _163  and  _165
REMARK   67  A    between atoms: _165  and  _166
REMARK   68  A    between atoms: _165  and  _168
REMARK   69  A    between atoms: _168  and  _169
REMARK   70  A    between atoms: _169  and  _170
REMARK   71  A    between atoms: _175  and  _177
REMARK   72  A    between atoms: _177  and  _178
REMARK   73  A    between atoms: _177  and  _180
REMARK   74  A    between atoms: _180  and  _181
REMARK   75  A    between atoms: _186  and  _187
REMARK   76  A    between atoms: _189  and  _191
REMARK   77  A    between atoms: _191  and  _192
REMARK   78  A    between atoms: _191  and  _194
REMARK   79  A    between atoms: _194  and  _195
REMARK   80  A    between atoms: _200  and  _202
REMARK   81  A    between atoms: _202  and  _203
REMARK   82  A    between atoms: _202  and  _205
REMARK   83  A    between atoms: _205  and  _206
REMARK   84  A    between atoms: _212  and  _214
REMARK   85  A    between atoms: _214  and  _215
REMARK   86  A    between atoms: _217  and  _219
REMARK   87  A    between atoms: _219  and  _220
REMARK   88  A    between atoms: _219  and  _222
REMARK   89  A    between atoms: _225  and  _227
REMARK   90  A    between atoms: _227  and  _228
REMARK   91  A    between atoms: _227  and  _230
REMARK   92  A    between atoms: _230  and  _231
REMARK   93  A    between atoms: _234  and  _236
REMARK   94  A    between atoms: _236  and  _237
REMARK   95  A    between atoms: _236  and  _239
REMARK   96  A    between atoms: _242  and  _244
REMARK   97  A    between atoms: _244  and  _245
REMARK   98  A    between atoms: _244  and  _247
REMARK   99  A    between atoms: _250  and  _252
REMARK  100  A    between atoms: _252  and  _253
REMARK  101  A    between atoms: _252  and  _255
REMARK  102  A    between atoms: _255  and  _256
REMARK  103  A    between atoms: _259  and  _261
REMARK  104  A    between atoms: _261  and  _262
REMARK  105  A    between atoms: _261  and  _264
REMARK  106  A    between atoms: _264  and  _265
REMARK  107  A    between atoms: _268  and  _270
REMARK  108  A    between atoms: _270  and  _271
REMARK  109  A    between atoms: _270  and  _273
REMARK  110  A    between atoms: _276  and  _278
REMARK  111  A    between atoms: _278  and  _279
REMARK  112  A    between atoms: _278  and  _281
REMARK  113  A    between atoms: _281  and  _282
REMARK  114  A    between atoms: _288  and  _290
REMARK  115  A    between atoms: _290  and  _291
REMARK  116  A    between atoms: _290  and  _293
REMARK  117  A    between atoms: _293  and  _294
REMARK  118  A    between atoms: _300  and  _302
REMARK  119  A    between atoms: _302  and  _303
REMARK  120  A    between atoms: _305  and  _307
REMARK  121  A    between atoms: _307  and  _308
REMARK  122  A    between atoms: _307  and  _310
REMARK  123  A    between atoms: _310  and  _311
REMARK  124  A    between atoms: _311  and  _312
REMARK  125  A    between atoms: _315  and  _317
REMARK  126  A    between atoms: _317  and  _318
REMARK  127  A    between atoms: _317  and  _320
REMARK  128  A    between atoms: _320  and  _321
REMARK  129  A    between atoms: _321  and  _322
REMARK  130  A    between atoms: _322  and  _323
REMARK  131  A    between atoms: _323  and  _324
REMARK  132  A    between atoms: _328  and  _330
REMARK  133  A    between atoms: _330  and  _331
REMARK  134  A    between atoms: _330  and  _333
REMARK  135  A    between atoms: _333  and  _334
REMARK  136  A    between atoms: _337  and  _339
REMARK  137  A    between atoms: _339  and  _340
REMARK  138  A    between atoms: _339  and  _342
REMARK  139  A    between atoms: _342  and  _343
REMARK  140  A    between atoms: _343  and  _344
REMARK  141  A    between atoms: _349  and  _351
REMARK  142  A    between atoms: _351  and  _352
REMARK  143  A    between atoms: _351  and  _354
REMARK  144  A    between atoms: _354  and  _355
REMARK  145  A    between atoms: _358  and  _360
REMARK  146  A    between atoms: _360  and  _361
REMARK  147  A    between atoms: _363  and  _365
REMARK  148  A    between atoms: _365  and  _366
REMARK  149  A    between atoms: _365  and  _368
REMARK  150  A    between atoms: _372  and  _373
REMARK  151  A    between atoms: _378  and  _380
REMARK  152  A    between atoms: _380  and  _381
REMARK  153  A    between atoms: _380  and  _383
REMARK  154  A    between atoms: _383  and  _384
REMARK  155  A    between atoms: _387  and  _389
REMARK  156  A    between atoms: _389  and  _390
REMARK  157  A    between atoms: _389  and  _392
REMARK  158  A    between atoms: _395  and  _397
REMARK  159  A    between atoms: _397  and  _398
REMARK  160  A    between atoms: _397  and  _400
REMARK  161  A    between atoms: _400  and  _401
REMARK  162  A    between atoms: _401  and  _402
REMARK  163  A    between atoms: _402  and  _403
REMARK  164  A    between atoms: _412  and  _414
REMARK  165  A    between atoms: _414  and  _415
REMARK  166  A    between atoms: _414  and  _417
REMARK  167  A    between atoms: _417  and  _418
REMARK  168  A    between atoms: _421  and  _423
REMARK  169  A    between atoms: _423  and  _424
REMARK  170  A    between atoms: _427  and  _429
REMARK  171  A    between atoms: _429  and  _430
REMARK  172  A    between atoms: _429  and  _432
REMARK  173  A    between atoms: _432  and  _433
REMARK  174  A    between atoms: _433  and  _434
REMARK  175  A    between atoms: _436  and  _438
REMARK  176  A    between atoms: _438  and  _439
REMARK  177  A    between atoms: _438  and  _441
REMARK  178  A    between atoms: _441  and  _442
REMARK  179  A    between atoms: _444  and  _446
REMARK  180  A    between atoms: _446  and  _447
REMARK  181  A    between atoms: _446  and  _449
REMARK  182  A    between atoms: _449  and  _450
REMARK  183  A    between atoms: _452  and  _454
REMARK  184  A    between atoms: _454  and  _455
REMARK  185  A    between atoms: _454  and  _457
REMARK  186  A    between atoms: _457  and  _458
REMARK  187  A    between atoms: _458  and  _459
REMARK  188  A    between atoms: _459  and  _460
REMARK  189  A    between atoms: _469  and  _471
REMARK  190  A    between atoms: _471  and  _472
REMARK  191  A    between atoms: _471  and  _474
REMARK  192  A    between atoms: _474  and  _475
REMARK  193  A    between atoms: _480  and  _482
REMARK  194  A    between atoms: _482  and  _483
REMARK  195  A    between atoms: _482  and  _485
REMARK  196  A    between atoms: _485  and  _486
REMARK  197  A    between atoms: _486  and  _487
REMARK  198  A    between atoms: _487  and  _488
REMARK  199  A    between atoms: _497  and  _499
REMARK  200  A    between atoms: _499  and  _500
REMARK  201  A    between atoms: _499  and  _502
REMARK  202  A    between atoms: _502  and  _503
REMARK  203  A    between atoms: _503  and  _504
REMARK  204  A    between atoms: _504  and  _505
REMARK  205  A    between atoms: _514  and  _516
REMARK  206  A    between atoms: _516  and  _517
REMARK  207  A    between atoms: _516  and  _519
REMARK  208  A    between atoms: _519  and  _520
REMARK  209  A    between atoms: _523  and  _525
REMARK  210  A    between atoms: _525  and  _526
REMARK  211  A    between atoms: _525  and  _528
REMARK  212  A    between atoms: _528  and  _529
REMARK                            x       y       z     vdW  Elec       q    Type
REMARK                         _______ _______ _______ _____ _____    ______ ____
ROOT
ATOM      1  O   HOH     1      18.854  17.260  -5.658  0.00  0.00    +0.000 OA
ENDROOT
TORSDOF 0
REMARK  Name = ../refined-set-2016/3ivc/3ivc_pocket.pdb
REMARK  212 active torsions:
REMARK  status: ('A' for Active; 'I' for Inactive)
REMARK    1  A    between atoms: _1  and  _3
REMARK    2  A    between atoms: _3  and  _4
REMARK    3  A    between atoms: _3  and  _6
REMARK    4  A    between atoms: _10  and  _11
REMARK    5  A    between atoms: _16  and  _18
REMARK    6  A    between atoms: _18  and  _19
REMARK    7  A    between atoms: _18  and  _21
REMARK    8  A    between atoms: _21  and  _22
REMARK    9  A    between atoms: _25  and  _27
REMARK   10  A    between atoms: _27  and  _28
REMARK   11  A    between atoms: _27  and  _30
REMARK   12  A    between atoms: _30  and  _31
REMARK   13  A    between atoms: _31  and  _32
REMARK   14  A    between atoms: _34  and  _36
REMARK   15  A    between atoms: _36  and  _37
REMARK   16  A    between atoms: _39  and  _41
REMARK   17  A    between atoms: _41  and  _42
REMARK   18  A    between atoms: _45  and  _47
REMARK   19  A    between atoms: _47  and  _48
REMARK   20  A    between atoms: _47  and  _50
REMARK   21  A    between atoms: _50  and  _51
REMARK   22  A    between atoms: _54  and  _56
REMARK   23  A    between atoms: _56  and  _57
REMARK   24  A    between atoms: _56  and  _59
REMARK   25  A    between atoms: _59  and  _60
REMARK   26  A    between atoms: _65  and  _67
REMARK   27  A    between atoms: _67  and  _68
REMARK   28  A    between atoms: _67  and  _70
REMARK   29  A    between atoms: _70  and  _71
REMARK   30  A    between atoms: _71  and  _72
REMARK   31  A    between atoms: _75  and  _77
REMARK   32  A    between atoms: _77  and  _78
REMARK   33  A    between atoms: _80  and  _82
REMARK   34  A    between atoms: _82  and  _83
REMARK   35  A    between atoms: _82  and  _85
REMARK   36  A    between atoms: _85  and  _86
REMARK   37  A    between atoms: _91  and  _93
REMARK   38  A    between atoms: _93  and  _94
REMARK   39  A    between atoms: _93  and  _96
REMARK   40  A    between atoms: _96  and  _97
REMARK   41  A    between atoms: _100  and  _102
REMARK   42  A    between atoms: _102  and  _103
REMARK   43  A    between atoms: _106  and  _108
REMARK   44  A    between atoms: _108  and  _109
REMARK   45  A    between atoms: _108  and  _111
REMARK   46  A    between atoms: _111  and  _112
REMARK   47  A    between atoms: _115  and  _117
REMARK   48  A    between atoms: _117  and  _118
REMARK   49  A    between atoms: _117  and  _120
REMARK   50  A    between atoms: _123  and  _125
REMARK   51  A    between atoms: _125  and  _126
REMARK   52  A    between atoms: _125  and  _128
REMARK   53  A    between atoms: _128  and  _129
REMARK   54  A    between atoms: _131  and  _133
REMARK   55  A    between atoms: _133  and  _134
REMARK   56  A    between atoms: _133  and  _136
REMARK   57  A    between atoms: _136  and  _137
REMARK   58  A    between atoms: _140  and  _142
REMARK   59  A    between atoms: _142  and  _143
REMARK   60  A    between atoms: _142  and  _145
REMARK   61  A    between atoms: _145  and  _146
REMARK   62  A    between atoms: _152  and  _154
REMARK   63  A    between atoms: _154  and  _155
REMARK   64  A    between atoms: _154  and  _157
REMARK   65  A    between atoms: _157  and  _158
REMARK   66  A    between atoms: _163  and  _165
REMARK   67  A    between atoms: _165  and  _166
REMARK   68  A    between atoms: _165  and  _168
REMARK   69  A    between atoms: _168  and  _169
REMARK   70  A    between atoms: _169  and  _170
REMARK   71  A    between atoms: _175  and  _177
REMARK   72  A    between atoms: _177  and  _178
REMARK   73  A    between atoms: _177  and  _180
REMARK   74  A    between atoms: _180  and  _181
REMARK   75  A    between atoms: _186  and  _187
REMARK   76  A    between atoms: _189  and  _191
REMARK   77  A    between atoms: _191  and  _192
REMARK   78  A    between atoms: _191  and  _194
REMARK   79  A    between atoms: _194  and  _195
REMARK   80  A    between atoms: _200  and  _202
REMARK   81  A    between atoms: _202  and  _203
REMARK   82  A    between atoms: _202  and  _205
REMARK   83  A    between atoms: _205  and  _206
REMARK   84  A    between atoms: _212  and  _214
REMARK   85  A    between atoms: _214  and  _215
REMARK   86  A    between atoms: _217  and  _219
REMARK   87  A    between atoms: _219  and  _220
REMARK   88  A    between atoms: _219  and  _222
REMARK   89  A    between atoms: _225  and  _227
REMARK   90  A    between atoms: _227  and  _228
REMARK   91  A    between atoms: _227  and  _230
REMARK   92  A    between atoms: _230  and  _231
REMARK   93  A    between atoms: _234  and  _236
REMARK   94  A    between atoms: _236  and  _237
REMARK   95  A    between atoms: _236  and  _239
REMARK   96  A    between atoms: _242  and  _244
REMARK   97  A    between atoms: _244  and  _245
REMARK   98  A    between atoms: _244  and  _247
REMARK   99  A    between atoms: _250  and  _252
REMARK  100  A    between atoms: _252  and  _253
REMARK  101  A    between atoms: _252  and  _255
REMARK  102  A    between atoms: _255  and  _256
REMARK  103  A    between atoms: _259  and  _261
REMARK  104  A    between atoms: _261  and  _262
REMARK  105  A    between atoms: _261  and  _264
REMARK  106  A    between atoms: _264  and  _265
REMARK  107  A    between atoms: _268  and  _270
REMARK  108  A    between atoms: _270  and  _271
REMARK  109  A    between atoms: _270  and  _273
REMARK  110  A    between atoms: _276  and  _278
REMARK  111  A    between atoms: _278  and  _279
REMARK  112  A    between atoms: _278  and  _281
REMARK  113  A    between atoms: _281  and  _282
REMARK  114  A    between atoms: _288  and  _290
REMARK  115  A    between atoms: _290  and  _291
REMARK  116  A    between atoms: _290  and  _293
REMARK  117  A    between atoms: _293  and  _294
REMARK  118  A    between atoms: _300  and  _302
REMARK  119  A    between atoms: _302  and  _303
REMARK  120  A    between atoms: _305  and  _307
REMARK  121  A    between atoms: _307  and  _308
REMARK  122  A    between atoms: _307  and  _310
REMARK  123  A    between atoms: _310  and  _311
REMARK  124  A    between atoms: _311  and  _312
REMARK  125  A    between atoms: _315  and  _317
REMARK  126  A    between atoms: _317  and  _318
REMARK  127  A    between atoms: _317  and  _320
REMARK  128  A    between atoms: _320  and  _321
REMARK  129  A    between atoms: _321  and  _322
REMARK  130  A    between atoms: _322  and  _323
REMARK  131  A    between atoms: _323  and  _324
REMARK  132  A    between atoms: _328  and  _330
REMARK  133  A    between atoms: _330  and  _331
REMARK  134  A    between atoms: _330  and  _333
REMARK  135  A    between atoms: _333  and  _334
REMARK  136  A    between atoms: _337  and  _339
REMARK  137  A    between atoms: _339  and  _340
REMARK  138  A    between atoms: _339  and  _342
REMARK  139  A    between atoms: _342  and  _343
REMARK  140  A    between atoms: _343  and  _344
REMARK  141  A    between atoms: _349  and  _351
REMARK  142  A    between atoms: _351  and  _352
REMARK  143  A    between atoms: _351  and  _354
REMARK  144  A    between atoms: _354  and  _355
REMARK  145  A    between atoms: _358  and  _360
REMARK  146  A    between atoms: _360  and  _361
REMARK  147  A    between atoms: _363  and  _365
REMARK  148  A    between atoms: _365  and  _366
REMARK  149  A    between atoms: _365  and  _368
REMARK  150  A    between atoms: _372  and  _373
REMARK  151  A    between atoms: _378  and  _380
REMARK  152  A    between atoms: _380  and  _381
REMARK  153  A    between atoms: _380  and  _383
REMARK  154  A    between atoms: _383  and  _384
REMARK  155  A    between atoms: _387  and  _389
REMARK  156  A    between atoms: _389  and  _390
REMARK  157  A    between atoms: _389  and  _392
REMARK  158  A    between atoms: _395  and  _397
REMARK  159  A    between atoms: _397  and  _398
REMARK  160  A    between atoms: _397  and  _400
REMARK  161  A    between atoms: _400  and  _401
REMARK  162  A    between atoms: _401  and  _402
REMARK  163  A    between atoms: _402  and  _403
REMARK  164  A    between atoms: _412  and  _414
REMARK  165  A    between atoms: _414  and  _415
REMARK  166  A    between atoms: _414  and  _417
REMARK  167  A    between atoms: _417  and  _418
REMARK  168  A    between atoms: _421  and  _423
REMARK  169  A    between atoms: _423  and  _424
REMARK  170  A    between atoms: _427  and  _429
REMARK  171  A    between atoms: _429  and  _430
REMARK  172  A    between atoms: _429  and  _432
REMARK  173  A    between atoms: _432  and  _433
REMARK  174  A    between atoms: _433  and  _434
REMARK  175  A    between atoms: _436  and  _438
REMARK  176  A    between atoms: _438  and  _439
REMARK  177  A    between atoms: _438  and  _441
REMARK  178  A    between atoms: _441  and  _442
REMARK  179  A    between atoms: _444  and  _446
REMARK  180  A    between atoms: _446  and  _447
REMARK  181  A    between atoms: _446  and  _449
REMARK  182  A    between atoms: _449  and  _450
REMARK  183  A    between atoms: _452  and  _454
REMARK  184  A    between atoms: _454  and  _455
REMARK  185  A    between atoms: _454  and  _457
REMARK  186  A    between atoms: _457  and  _458
REMARK  187  A    between atoms: _458  and  _459
REMARK  188  A    between atoms: _459  and  _460
REMARK  189  A    between atoms: _469  and  _471
REMARK  190  A    between atoms: _471  and  _472
REMARK  191  A    between atoms: _471  and  _474
REMARK  192  A    between atoms: _474  and  _475
REMARK  193  A    between atoms: _480  and  _482
REMARK  194  A    between atoms: _482  and  _483
REMARK  195  A    between atoms: _482  and  _485
REMARK  196  A    between atoms: _485  and  _486
REMARK  197  A    between atoms: _486  and  _487
REMARK  198  A    between atoms: _487  and  _488
REMARK  199  A    between atoms: _497  and  _499
REMARK  200  A    between atoms: _499  and  _500
REMARK  201  A    between atoms: _499  and  _502
REMARK  202  A    between atoms: _502  and  _503
REMARK  203  A    between atoms: _503  and  _504
REMARK  204  A    between atoms: _504  and  _505
REMARK  205  A    between atoms: _514  and  _516
REMARK  206  A    between atoms: _516  and  _517
REMARK  207  A    between atoms: _516  and  _519
REMARK  208  A    between atoms: _519  and  _520
REMARK  209  A    between atoms: _523  and  _525
REMARK  210  A    between atoms: _525  and  _526
REMARK  211  A    between atoms: _525  and  _528
REMARK  212  A    between atoms: _528  and  _529
REMARK                            x       y       z     vdW  Elec       q    Type
REMARK                         _______ _______ _______ _____ _____    ______ ____
ROOT
ATOM      1  O   HOH     1      17.957  17.914  -2.450  0.00  0.00    +0.000 OA
ENDROOT
TORSDOF 0
REMARK  Name = ../refined-set-2016/3ivc/3ivc_pocket.pdb
REMARK  212 active torsions:
REMARK  status: ('A' for Active; 'I' for Inactive)
REMARK    1  A    between atoms: _1  and  _3
REMARK    2  A    between atoms: _3  and  _4
REMARK    3  A    between atoms: _3  and  _6
REMARK    4  A    between atoms: _10  and  _11
REMARK    5  A    between atoms: _16  and  _18
REMARK    6  A    between atoms: _18  and  _19
REMARK    7  A    between atoms: _18  and  _21
REMARK    8  A    between atoms: _21  and  _22
REMARK    9  A    between atoms: _25  and  _27
REMARK   10  A    between atoms: _27  and  _28
REMARK   11  A    between atoms: _27  and  _30
REMARK   12  A    between atoms: _30  and  _31
REMARK   13  A    between atoms: _31  and  _32
REMARK   14  A    between atoms: _34  and  _36
REMARK   15  A    between atoms: _36  and  _37
REMARK   16  A    between atoms: _39  and  _41
REMARK   17  A    between atoms: _41  and  _42
REMARK   18  A    between atoms: _45  and  _47
REMARK   19  A    between atoms: _47  and  _48
REMARK   20  A    between atoms: _47  and  _50
REMARK   21  A    between atoms: _50  and  _51
REMARK   22  A    between atoms: _54  and  _56
REMARK   23  A    between atoms: _56  and  _57
REMARK   24  A    between atoms: _56  and  _59
REMARK   25  A    between atoms: _59  and  _60
REMARK   26  A    between atoms: _65  and  _67
REMARK   27  A    between atoms: _67  and  _68
REMARK   28  A    between atoms: _67  and  _70
REMARK   29  A    between atoms: _70  and  _71
REMARK   30  A    between atoms: _71  and  _72
REMARK   31  A    between atoms: _75  and  _77
REMARK   32  A    between atoms: _77  and  _78
REMARK   33  A    between atoms: _80  and  _82
REMARK   34  A    between atoms: _82  and  _83
REMARK   35  A    between atoms: _82  and  _85
REMARK   36  A    between atoms: _85  and  _86
REMARK   37  A    between atoms: _91  and  _93
REMARK   38  A    between atoms: _93  and  _94
REMARK   39  A    between atoms: _93  and  _96
REMARK   40  A    between atoms: _96  and  _97
REMARK   41  A    between atoms: _100  and  _102
REMARK   42  A    between atoms: _102  and  _103
REMARK   43  A    between atoms: _106  and  _108
REMARK   44  A    between atoms: _108  and  _109
REMARK   45  A    between atoms: _108  and  _111
REMARK   46  A    between atoms: _111  and  _112
REMARK   47  A    between atoms: _115  and  _117
REMARK   48  A    between atoms: _117  and  _118
REMARK   49  A    between atoms: _117  and  _120
REMARK   50  A    between atoms: _123  and  _125
REMARK   51  A    between atoms: _125  and  _126
REMARK   52  A    between atoms: _125  and  _128
REMARK   53  A    between atoms: _128  and  _129
REMARK   54  A    between atoms: _131  and  _133
REMARK   55  A    between atoms: _133  and  _134
REMARK   56  A    between atoms: _133  and  _136
REMARK   57  A    between atoms: _136  and  _137
REMARK   58  A    between atoms: _140  and  _142
REMARK   59  A    between atoms: _142  and  _143
REMARK   60  A    between atoms: _142  and  _145
REMARK   61  A    between atoms: _145  and  _146
REMARK   62  A    between atoms: _152  and  _154
REMARK   63  A    between atoms: _154  and  _155
REMARK   64  A    between atoms: _154  and  _157
REMARK   65  A    between atoms: _157  and  _158
REMARK   66  A    between atoms: _163  and  _165
REMARK   67  A    between atoms: _165  and  _166
REMARK   68  A    between atoms: _165  and  _168
REMARK   69  A    between atoms: _168  and  _169
REMARK   70  A    between atoms: _169  and  _170
REMARK   71  A    between atoms: _175  and  _177
REMARK   72  A    between atoms: _177  and  _178
REMARK   73  A    between atoms: _177  and  _180
REMARK   74  A    between atoms: _180  and  _181
REMARK   75  A    between atoms: _186  and  _187
REMARK   76  A    between atoms: _189  and  _191
REMARK   77  A    between atoms: _191  and  _192
REMARK   78  A    between atoms: _191  and  _194
REMARK   79  A    between atoms: _194  and  _195
REMARK   80  A    between atoms: _200  and  _202
REMARK   81  A    between atoms: _202  and  _203
REMARK   82  A    between atoms: _202  and  _205
REMARK   83  A    between atoms: _205  and  _206
REMARK   84  A    between atoms: _212  and  _214
REMARK   85  A    between atoms: _214  and  _215
REMARK   86  A    between atoms: _217  and  _219
REMARK   87  A    between atoms: _219  and  _220
REMARK   88  A    between atoms: _219  and  _222
REMARK   89  A    between atoms: _225  and  _227
REMARK   90  A    between atoms: _227  and  _228
REMARK   91  A    between atoms: _227  and  _230
REMARK   92  A    between atoms: _230  and  _231
REMARK   93  A    between atoms: _234  and  _236
REMARK   94  A    between atoms: _236  and  _237
REMARK   95  A    between atoms: _236  and  _239
REMARK   96  A    between atoms: _242  and  _244
REMARK   97  A    between atoms: _244  and  _245
REMARK   98  A    between atoms: _244  and  _247
REMARK   99  A    between atoms: _250  and  _252
REMARK  100  A    between atoms: _252  and  _253
REMARK  101  A    between atoms: _252  and  _255
REMARK  102  A    between atoms: _255  and  _256
REMARK  103  A    between atoms: _259  and  _261
REMARK  104  A    between atoms: _261  and  _262
REMARK  105  A    between atoms: _261  and  _264
REMARK  106  A    between atoms: _264  and  _265
REMARK  107  A    between atoms: _268  and  _270
REMARK  108  A    between atoms: _270  and  _271
REMARK  109  A    between atoms: _270  and  _273
REMARK  110  A    between atoms: _276  and  _278
REMARK  111  A    between atoms: _278  and  _279
REMARK  112  A    between atoms: _278  and  _281
REMARK  113  A    between atoms: _281  and  _282
REMARK  114  A    between atoms: _288  and  _290
REMARK  115  A    between atoms: _290  and  _291
REMARK  116  A    between atoms: _290  and  _293
REMARK  117  A    between atoms: _293  and  _294
REMARK  118  A    between atoms: _300  and  _302
REMARK  119  A    between atoms: _302  and  _303
REMARK  120  A    between atoms: _305  and  _307
REMARK  121  A    between atoms: _307  and  _308
REMARK  122  A    between atoms: _307  and  _310
REMARK  123  A    between atoms: _310  and  _311
REMARK  124  A    between atoms: _311  and  _312
REMARK  125  A    between atoms: _315  and  _317
REMARK  126  A    between atoms: _317  and  _318
REMARK  127  A    between atoms: _317  and  _320
REMARK  128  A    between atoms: _320  and  _321
REMARK  129  A    between atoms: _321  and  _322
REMARK  130  A    between atoms: _322  and  _323
REMARK  131  A    between atoms: _323  and  _324
REMARK  132  A    between atoms: _328  and  _330
REMARK  133  A    between atoms: _330  and  _331
REMARK  134  A    between atoms: _330  and  _333
REMARK  135  A    between atoms: _333  and  _334
REMARK  136  A    between atoms: _337  and  _339
REMARK  137  A    between atoms: _339  and  _340
REMARK  138  A    between atoms: _339  and  _342
REMARK  139  A    between atoms: _342  and  _343
REMARK  140  A    between atoms: _343  and  _344
REMARK  141  A    between atoms: _349  and  _351
REMARK  142  A    between atoms: _351  and  _352
REMARK  143  A    between atoms: _351  and  _354
REMARK  144  A    between atoms: _354  and  _355
REMARK  145  A    between atoms: _358  and  _360
REMARK  146  A    between atoms: _360  and  _361
REMARK  147  A    between atoms: _363  and  _365
REMARK  148  A    between atoms: _365  and  _366
REMARK  149  A    between atoms: _365  and  _368
REMARK  150  A    between atoms: _372  and  _373
REMARK  151  A    between atoms: _378  and  _380
REMARK  152  A    between atoms: _380  and  _381
REMARK  153  A    between atoms: _380  and  _383
REMARK  154  A    between atoms: _383  and  _384
REMARK  155  A    between atoms: _387  and  _389
REMARK  156  A    between atoms: _389  and  _390
REMARK  157  A    between atoms: _389  and  _392
REMARK  158  A    between atoms: _395  and  _397
REMARK  159  A    between atoms: _397  and  _398
REMARK  160  A    between atoms: _397  and  _400
REMARK  161  A    between atoms: _400  and  _401
REMARK  162  A    between atoms: _401  and  _402
REMARK  163  A    between atoms: _402  and  _403
REMARK  164  A    between atoms: _412  and  _414
REMARK  165  A    between atoms: _414  and  _415
REMARK  166  A    between atoms: _414  and  _417
REMARK  167  A    between atoms: _417  and  _418
REMARK  168  A    between atoms: _421  and  _423
REMARK  169  A    between atoms: _423  and  _424
REMARK  170  A    between atoms: _427  and  _429
REMARK  171  A    between atoms: _429  and  _430
REMARK  172  A    between atoms: _429  and  _432
REMARK  173  A    between atoms: _432  and  _433
REMARK  174  A    between atoms: _433  and  _434
REMARK  175  A    between atoms: _436  and  _438
REMARK  176  A    between atoms: _438  and  _439
REMARK  177  A    between atoms: _438  and  _441
REMARK  178  A    between atoms: _441  and  _442
REMARK  179  A    between atoms: _444  and  _446
REMARK  180  A    between atoms: _446  and  _447
REMARK  181  A    between atoms: _446  and  _449
REMARK  182  A    between atoms: _449  and  _450
REMARK  183  A    between atoms: _452  and  _454
REMARK  184  A    between atoms: _454  and  _455
REMARK  185  A    between atoms: _454  and  _457
REMARK  186  A    between atoms: _457  and  _458
REMARK  187  A    between atoms: _458  and  _459
REMARK  188  A    between atoms: _459  and  _460
REMARK  189  A    between atoms: _469  and  _471
REMARK  190  A    between atoms: _471  and  _472
REMARK  191  A    between atoms: _471  and  _474
REMARK  192  A    between atoms: _474  and  _475
REMARK  193  A    between atoms: _480  and  _482
REMARK  194  A    between atoms: _482  and  _483
REMARK  195  A    between atoms: _482  and  _485
REMARK  196  A    between atoms: _485  and  _486
REMARK  197  A    between atoms: _486  and  _487
REMARK  198  A    between atoms: _487  and  _488
REMARK  199  A    between atoms: _497  and  _499
REMARK  200  A    between atoms: _499  and  _500
REMARK  201  A    between atoms: _499  and  _502
REMARK  202  A    between atoms: _502  and  _503
REMARK  203  A    between atoms: _503  and  _504
REMARK  204  A    between atoms: _504  and  _505
REMARK  205  A    between atoms: _514  and  _516
REMARK  206  A    between atoms: _516  and  _517
REMARK  207  A    between atoms: _516  and  _519
REMARK  208  A    between atoms: _519  and  _520
REMARK  209  A    between atoms: _523  and  _525
REMARK  210  A    between atoms: _525  and  _526
REMARK  211  A    between atoms: _525  and  _528
REMARK  212  A    between atoms: _528  and  _529
REMARK                            x       y       z     vdW  Elec       q    Type
REMARK                         _______ _______ _______ _____ _____    ______ ____
ROOT
ATOM      1  O   HOH     1      16.344  14.525   2.638  0.00  0.00    +0.000 OA
ENDROOT
TORSDOF 0
REMARK  Name = ../refined-set-2016/3ivc/3ivc_pocket.pdb
REMARK  212 active torsions:
REMARK  status: ('A' for Active; 'I' for Inactive)
REMARK    1  A    between atoms: _1  and  _3
REMARK    2  A    between atoms: _3  and  _4
REMARK    3  A    between atoms: _3  and  _6
REMARK    4  A    between atoms: _10  and  _11
REMARK    5  A    between atoms: _16  and  _18
REMARK    6  A    between atoms: _18  and  _19
REMARK    7  A    between atoms: _18  and  _21
REMARK    8  A    between atoms: _21  and  _22
REMARK    9  A    between atoms: _25  and  _27
REMARK   10  A    between atoms: _27  and  _28
REMARK   11  A    between atoms: _27  and  _30
REMARK   12  A    between atoms: _30  and  _31
REMARK   13  A    between atoms: _31  and  _32
REMARK   14  A    between atoms: _34  and  _36
REMARK   15  A    between atoms: _36  and  _37
REMARK   16  A    between atoms: _39  and  _41
REMARK   17  A    between atoms: _41  and  _42
REMARK   18  A    between atoms: _45  and  _47
REMARK   19  A    between atoms: _47  and  _48
REMARK   20  A    between atoms: _47  and  _50
REMARK   21  A    between atoms: _50  and  _51
REMARK   22  A    between atoms: _54  and  _56
REMARK   23  A    between atoms: _56  and  _57
REMARK   24  A    between atoms: _56  and  _59
REMARK   25  A    between atoms: _59  and  _60
REMARK   26  A    between atoms: _65  and  _67
REMARK   27  A    between atoms: _67  and  _68
REMARK   28  A    between atoms: _67  and  _70
REMARK   29  A    between atoms: _70  and  _71
REMARK   30  A    between atoms: _71  and  _72
REMARK   31  A    between atoms: _75  and  _77
REMARK   32  A    between atoms: _77  and  _78
REMARK   33  A    between atoms: _80  and  _82
REMARK   34  A    between atoms: _82  and  _83
REMARK   35  A    between atoms: _82  and  _85
REMARK   36  A    between atoms: _85  and  _86
REMARK   37  A    between atoms: _91  and  _93
REMARK   38  A    between atoms: _93  and  _94
REMARK   39  A    between atoms: _93  and  _96
REMARK   40  A    between atoms: _96  and  _97
REMARK   41  A    between atoms: _100  and  _102
REMARK   42  A    between atoms: _102  and  _103
REMARK   43  A    between atoms: _106  and  _108
REMARK   44  A    between atoms: _108  and  _109
REMARK   45  A    between atoms: _108  and  _111
REMARK   46  A    between atoms: _111  and  _112
REMARK   47  A    between atoms: _115  and  _117
REMARK   48  A    between atoms: _117  and  _118
REMARK   49  A    between atoms: _117  and  _120
REMARK   50  A    between atoms: _123  and  _125
REMARK   51  A    between atoms: _125  and  _126
REMARK   52  A    between atoms: _125  and  _128
REMARK   53  A    between atoms: _128  and  _129
REMARK   54  A    between atoms: _131  and  _133
REMARK   55  A    between atoms: _133  and  _134
REMARK   56  A    between atoms: _133  and  _136
REMARK   57  A    between atoms: _136  and  _137
REMARK   58  A    between atoms: _140  and  _142
REMARK   59  A    between atoms: _142  and  _143
REMARK   60  A    between atoms: _142  and  _145
REMARK   61  A    between atoms: _145  and  _146
REMARK   62  A    between atoms: _152  and  _154
REMARK   63  A    between atoms: _154  and  _155
REMARK   64  A    between atoms: _154  and  _157
REMARK   65  A    between atoms: _157  and  _158
REMARK   66  A    between atoms: _163  and  _165
REMARK   67  A    between atoms: _165  and  _166
REMARK   68  A    between atoms: _165  and  _168
REMARK   69  A    between atoms: _168  and  _169
REMARK   70  A    between atoms: _169  and  _170
REMARK   71  A    between atoms: _175  and  _177
REMARK   72  A    between atoms: _177  and  _178
REMARK   73  A    between atoms: _177  and  _180
REMARK   74  A    between atoms: _180  and  _181
REMARK   75  A    between atoms: _186  and  _187
REMARK   76  A    between atoms: _189  and  _191
REMARK   77  A    between atoms: _191  and  _192
REMARK   78  A    between atoms: _191  and  _194
REMARK   79  A    between atoms: _194  and  _195
REMARK   80  A    between atoms: _200  and  _202
REMARK   81  A    between atoms: _202  and  _203
REMARK   82  A    between atoms: _202  and  _205
REMARK   83  A    between atoms: _205  and  _206
REMARK   84  A    between atoms: _212  and  _214
REMARK   85  A    between atoms: _214  and  _215
REMARK   86  A    between atoms: _217  and  _219
REMARK   87  A    between atoms: _219  and  _220
REMARK   88  A    between atoms: _219  and  _222
REMARK   89  A    between atoms: _225  and  _227
REMARK   90  A    between atoms: _227  and  _228
REMARK   91  A    between atoms: _227  and  _230
REMARK   92  A    between atoms: _230  and  _231
REMARK   93  A    between atoms: _234  and  _236
REMARK   94  A    between atoms: _236  and  _237
REMARK   95  A    between atoms: _236  and  _239
REMARK   96  A    between atoms: _242  and  _244
REMARK   97  A    between atoms: _244  and  _245
REMARK   98  A    between atoms: _244  and  _247
REMARK   99  A    between atoms: _250  and  _252
REMARK  100  A    between atoms: _252  and  _253
REMARK  101  A    between atoms: _252  and  _255
REMARK  102  A    between atoms: _255  and  _256
REMARK  103  A    between atoms: _259  and  _261
REMARK  104  A    between atoms: _261  and  _262
REMARK  105  A    between atoms: _261  and  _264
REMARK  106  A    between atoms: _264  and  _265
REMARK  107  A    between atoms: _268  and  _270
REMARK  108  A    between atoms: _270  and  _271
REMARK  109  A    between atoms: _270  and  _273
REMARK  110  A    between atoms: _276  and  _278
REMARK  111  A    between atoms: _278  and  _279
REMARK  112  A    between atoms: _278  and  _281
REMARK  113  A    between atoms: _281  and  _282
REMARK  114  A    between atoms: _288  and  _290
REMARK  115  A    between atoms: _290  and  _291
REMARK  116  A    between atoms: _290  and  _293
REMARK  117  A    between atoms: _293  and  _294
REMARK  118  A    between atoms: _300  and  _302
REMARK  119  A    between atoms: _302  and  _303
REMARK  120  A    between atoms: _305  and  _307
REMARK  121  A    between atoms: _307  and  _308
REMARK  122  A    between atoms: _307  and  _310
REMARK  123  A    between atoms: _310  and  _311
REMARK  124  A    between atoms: _311  and  _312
REMARK  125  A    between atoms: _315  and  _317
REMARK  126  A    between atoms: _317  and  _318
REMARK  127  A    between atoms: _317  and  _320
REMARK  128  A    between atoms: _320  and  _321
REMARK  129  A    between atoms: _321  and  _322
REMARK  130  A    between atoms: _322  and  _323
REMARK  131  A    between atoms: _323  and  _324
REMARK  132  A    between atoms: _328  and  _330
REMARK  133  A    between atoms: _330  and  _331
REMARK  134  A    between atoms: _330  and  _333
REMARK  135  A    between atoms: _333  and  _334
REMARK  136  A    between atoms: _337  and  _339
REMARK  137  A    between atoms: _339  and  _340
REMARK  138  A    between atoms: _339  and  _342
REMARK  139  A    between atoms: _342  and  _343
REMARK  140  A    between atoms: _343  and  _344
REMARK  141  A    between atoms: _349  and  _351
REMARK  142  A    between atoms: _351  and  _352
REMARK  143  A    between atoms: _351  and  _354
REMARK  144  A    between atoms: _354  and  _355
REMARK  145  A    between atoms: _358  and  _360
REMARK  146  A    between atoms: _360  and  _361
REMARK  147  A    between atoms: _363  and  _365
REMARK  148  A    between atoms: _365  and  _366
REMARK  149  A    between atoms: _365  and  _368
REMARK  150  A    between atoms: _372  and  _373
REMARK  151  A    between atoms: _378  and  _380
REMARK  152  A    between atoms: _380  and  _381
REMARK  153  A    between atoms: _380  and  _383
REMARK  154  A    between atoms: _383  and  _384
REMARK  155  A    between atoms: _387  and  _389
REMARK  156  A    between atoms: _389  and  _390
REMARK  157  A    between atoms: _389  and  _392
REMARK  158  A    between atoms: _395  and  _397
REMARK  159  A    between atoms: _397  and  _398
REMARK  160  A    between atoms: _397  and  _400
REMARK  161  A    between atoms: _400  and  _401
REMARK  162  A    between atoms: _401  and  _402
REMARK  163  A    between atoms: _402  and  _403
REMARK  164  A    between atoms: _412  and  _414
REMARK  165  A    between atoms: _414  and  _415
REMARK  166  A    between atoms: _414  and  _417
REMARK  167  A    between atoms: _417  and  _418
REMARK  168  A    between atoms: _421  and  _423
REMARK  169  A    between atoms: _423  and  _424
REMARK  170  A    between atoms: _427  and  _429
REMARK  171  A    between atoms: _429  and  _430
REMARK  172  A    between atoms: _429  and  _432
REMARK  173  A    between atoms: _432  and  _433
REMARK  174  A    between atoms: _433  and  _434
REMARK  175  A    between atoms: _436  and  _438
REMARK  176  A    between atoms: _438  and  _439
REMARK  177  A    between atoms: _438  and  _441
REMARK  178  A    between atoms: _441  and  _442
REMARK  179  A    between atoms: _444  and  _446
REMARK  180  A    between atoms: _446  and  _447
REMARK  181  A    between atoms: _446  and  _449
REMARK  182  A    between atoms: _449  and  _450
REMARK  183  A    between atoms: _452  and  _454
REMARK  184  A    between atoms: _454  and  _455
REMARK  185  A    between atoms: _454  and  _457
REMARK  186  A    between atoms: _457  and  _458
REMARK  187  A    between atoms: _458  and  _459
REMARK  188  A    between atoms: _459  and  _460
REMARK  189  A    between atoms: _469  and  _471
REMARK  190  A    between atoms: _471  and  _472
REMARK  191  A    between atoms: _471  and  _474
REMARK  192  A    between atoms: _474  and  _475
REMARK  193  A    between atoms: _480  and  _482
REMARK  194  A    between atoms: _482  and  _483
REMARK  195  A    between atoms: _482  and  _485
REMARK  196  A    between atoms: _485  and  _486
REMARK  197  A    between atoms: _486  and  _487
REMARK  198  A    between atoms: _487  and  _488
REMARK  199  A    between atoms: _497  and  _499
REMARK  200  A    between atoms: _499  and  _500
REMARK  201  A    between atoms: _499  and  _502
REMARK  202  A    between atoms: _502  and  _503
REMARK  203  A    between atoms: _503  and  _504
REMARK  204  A    between atoms: _504  and  _505
REMARK  205  A    between atoms: _514  and  _516
REMARK  206  A    between atoms: _516  and  _517
REMARK  207  A    between atoms: _516  and  _519
REMARK  208  A    between atoms: _519  and  _520
REMARK  209  A    between atoms: _523  and  _525
REMARK  210  A    between atoms: _525  and  _526
REMARK  211  A    between atoms: _525  and  _528
REMARK  212  A    between atoms: _528  and  _529
REMARK                            x       y       z     vdW  Elec       q    Type
REMARK                         _______ _______ _______ _____ _____    ______ ____
ROOT
ATOM      1  O   HOH     1      19.830   3.846   3.297  0.00  0.00    +0.000 OA
ENDROOT
TORSDOF 0
REMARK  Name = ../refined-set-2016/3ivc/3ivc_pocket.pdb
REMARK  212 active torsions:
REMARK  status: ('A' for Active; 'I' for Inactive)
REMARK    1  A    between atoms: _1  and  _3
REMARK    2  A    between atoms: _3  and  _4
REMARK    3  A    between atoms: _3  and  _6
REMARK    4  A    between atoms: _10  and  _11
REMARK    5  A    between atoms: _16  and  _18
REMARK    6  A    between atoms: _18  and  _19
REMARK    7  A    between atoms: _18  and  _21
REMARK    8  A    between atoms: _21  and  _22
REMARK    9  A    between atoms: _25  and  _27
REMARK   10  A    between atoms: _27  and  _28
REMARK   11  A    between atoms: _27  and  _30
REMARK   12  A    between atoms: _30  and  _31
REMARK   13  A    between atoms: _31  and  _32
REMARK   14  A    between atoms: _34  and  _36
REMARK   15  A    between atoms: _36  and  _37
REMARK   16  A    between atoms: _39  and  _41
REMARK   17  A    between atoms: _41  and  _42
REMARK   18  A    between atoms: _45  and  _47
REMARK   19  A    between atoms: _47  and  _48
REMARK   20  A    between atoms: _47  and  _50
REMARK   21  A    between atoms: _50  and  _51
REMARK   22  A    between atoms: _54  and  _56
REMARK   23  A    between atoms: _56  and  _57
REMARK   24  A    between atoms: _56  and  _59
REMARK   25  A    between atoms: _59  and  _60
REMARK   26  A    between atoms: _65  and  _67
REMARK   27  A    between atoms: _67  and  _68
REMARK   28  A    between atoms: _67  and  _70
REMARK   29  A    between atoms: _70  and  _71
REMARK   30  A    between atoms: _71  and  _72
REMARK   31  A    between atoms: _75  and  _77
REMARK   32  A    between atoms: _77  and  _78
REMARK   33  A    between atoms: _80  and  _82
REMARK   34  A    between atoms: _82  and  _83
REMARK   35  A    between atoms: _82  and  _85
REMARK   36  A    between atoms: _85  and  _86
REMARK   37  A    between atoms: _91  and  _93
REMARK   38  A    between atoms: _93  and  _94
REMARK   39  A    between atoms: _93  and  _96
REMARK   40  A    between atoms: _96  and  _97
REMARK   41  A    between atoms: _100  and  _102
REMARK   42  A    between atoms: _102  and  _103
REMARK   43  A    between atoms: _106  and  _108
REMARK   44  A    between atoms: _108  and  _109
REMARK   45  A    between atoms: _108  and  _111
REMARK   46  A    between atoms: _111  and  _112
REMARK   47  A    between atoms: _115  and  _117
REMARK   48  A    between atoms: _117  and  _118
REMARK   49  A    between atoms: _117  and  _120
REMARK   50  A    between atoms: _123  and  _125
REMARK   51  A    between atoms: _125  and  _126
REMARK   52  A    between atoms: _125  and  _128
REMARK   53  A    between atoms: _128  and  _129
REMARK   54  A    between atoms: _131  and  _133
REMARK   55  A    between atoms: _133  and  _134
REMARK   56  A    between atoms: _133  and  _136
REMARK   57  A    between atoms: _136  and  _137
REMARK   58  A    between atoms: _140  and  _142
REMARK   59  A    between atoms: _142  and  _143
REMARK   60  A    between atoms: _142  and  _145
REMARK   61  A    between atoms: _145  and  _146
REMARK   62  A    between atoms: _152  and  _154
REMARK   63  A    between atoms: _154  and  _155
REMARK   64  A    between atoms: _154  and  _157
REMARK   65  A    between atoms: _157  and  _158
REMARK   66  A    between atoms: _163  and  _165
REMARK   67  A    between atoms: _165  and  _166
REMARK   68  A    between atoms: _165  and  _168
REMARK   69  A    between atoms: _168  and  _169
REMARK   70  A    between atoms: _169  and  _170
REMARK   71  A    between atoms: _175  and  _177
REMARK   72  A    between atoms: _177  and  _178
REMARK   73  A    between atoms: _177  and  _180
REMARK   74  A    between atoms: _180  and  _181
REMARK   75  A    between atoms: _186  and  _187
REMARK   76  A    between atoms: _189  and  _191
REMARK   77  A    between atoms: _191  and  _192
REMARK   78  A    between atoms: _191  and  _194
REMARK   79  A    between atoms: _194  and  _195
REMARK   80  A    between atoms: _200  and  _202
REMARK   81  A    between atoms: _202  and  _203
REMARK   82  A    between atoms: _202  and  _205
REMARK   83  A    between atoms: _205  and  _206
REMARK   84  A    between atoms: _212  and  _214
REMARK   85  A    between atoms: _214  and  _215
REMARK   86  A    between atoms: _217  and  _219
REMARK   87  A    between atoms: _219  and  _220
REMARK   88  A    between atoms: _219  and  _222
REMARK   89  A    between atoms: _225  and  _227
REMARK   90  A    between atoms: _227  and  _228
REMARK   91  A    between atoms: _227  and  _230
REMARK   92  A    between atoms: _230  and  _231
REMARK   93  A    between atoms: _234  and  _236
REMARK   94  A    between atoms: _236  and  _237
REMARK   95  A    between atoms: _236  and  _239
REMARK   96  A    between atoms: _242  and  _244
REMARK   97  A    between atoms: _244  and  _245
REMARK   98  A    between atoms: _244  and  _247
REMARK   99  A    between atoms: _250  and  _252
REMARK  100  A    between atoms: _252  and  _253
REMARK  101  A    between atoms: _252  and  _255
REMARK  102  A    between atoms: _255  and  _256
REMARK  103  A    between atoms: _259  and  _261
REMARK  104  A    between atoms: _261  and  _262
REMARK  105  A    between atoms: _261  and  _264
REMARK  106  A    between atoms: _264  and  _265
REMARK  107  A    between atoms: _268  and  _270
REMARK  108  A    between atoms: _270  and  _271
REMARK  109  A    between atoms: _270  and  _273
REMARK  110  A    between atoms: _276  and  _278
REMARK  111  A    between atoms: _278  and  _279
REMARK  112  A    between atoms: _278  and  _281
REMARK  113  A    between atoms: _281  and  _282
REMARK  114  A    between atoms: _288  and  _290
REMARK  115  A    between atoms: _290  and  _291
REMARK  116  A    between atoms: _290  and  _293
REMARK  117  A    between atoms: _293  and  _294
REMARK  118  A    between atoms: _300  and  _302
REMARK  119  A    between atoms: _302  and  _303
REMARK  120  A    between atoms: _305  and  _307
REMARK  121  A    between atoms: _307  and  _308
REMARK  122  A    between atoms: _307  and  _310
REMARK  123  A    between atoms: _310  and  _311
REMARK  124  A    between atoms: _311  and  _312
REMARK  125  A    between atoms: _315  and  _317
REMARK  126  A    between atoms: _317  and  _318
REMARK  127  A    between atoms: _317  and  _320
REMARK  128  A    between atoms: _320  and  _321
REMARK  129  A    between atoms: _321  and  _322
REMARK  130  A    between atoms: _322  and  _323
REMARK  131  A    between atoms: _323  and  _324
REMARK  132  A    between atoms: _328  and  _330
REMARK  133  A    between atoms: _330  and  _331
REMARK  134  A    between atoms: _330  and  _333
REMARK  135  A    between atoms: _333  and  _334
REMARK  136  A    between atoms: _337  and  _339
REMARK  137  A    between atoms: _339  and  _340
REMARK  138  A    between atoms: _339  and  _342
REMARK  139  A    between atoms: _342  and  _343
REMARK  140  A    between atoms: _343  and  _344
REMARK  141  A    between atoms: _349  and  _351
REMARK  142  A    between atoms: _351  and  _352
REMARK  143  A    between atoms: _351  and  _354
REMARK  144  A    between atoms: _354  and  _355
REMARK  145  A    between atoms: _358  and  _360
REMARK  146  A    between atoms: _360  and  _361
REMARK  147  A    between atoms: _363  and  _365
REMARK  148  A    between atoms: _365  and  _366
REMARK  149  A    between atoms: _365  and  _368
REMARK  150  A    between atoms: _372  and  _373
REMARK  151  A    between atoms: _378  and  _380
REMARK  152  A    between atoms: _380  and  _381
REMARK  153  A    between atoms: _380  and  _383
REMARK  154  A    between atoms: _383  and  _384
REMARK  155  A    between atoms: _387  and  _389
REMARK  156  A    between atoms: _389  and  _390
REMARK  157  A    between atoms: _389  and  _392
REMARK  158  A    between atoms: _395  and  _397
REMARK  159  A    between atoms: _397  and  _398
REMARK  160  A    between atoms: _397  and  _400
REMARK  161  A    between atoms: _400  and  _401
REMARK  162  A    between atoms: _401  and  _402
REMARK  163  A    between atoms: _402  and  _403
REMARK  164  A    between atoms: _412  and  _414
REMARK  165  A    between atoms: _414  and  _415
REMARK  166  A    between atoms: _414  and  _417
REMARK  167  A    between atoms: _417  and  _418
REMARK  168  A    between atoms: _421  and  _423
REMARK  169  A    between atoms: _423  and  _424
REMARK  170  A    between atoms: _427  and  _429
REMARK  171  A    between atoms: _429  and  _430
REMARK  172  A    between atoms: _429  and  _432
REMARK  173  A    between atoms: _432  and  _433
REMARK  174  A    between atoms: _433  and  _434
REMARK  175  A    between atoms: _436  and  _438
REMARK  176  A    between atoms: _438  and  _439
REMARK  177  A    between atoms: _438  and  _441
REMARK  178  A    between atoms: _441  and  _442
REMARK  179  A    between atoms: _444  and  _446
REMARK  180  A    between atoms: _446  and  _447
REMARK  181  A    between atoms: _446  and  _449
REMARK  182  A    between atoms: _449  and  _450
REMARK  183  A    between atoms: _452  and  _454
REMARK  184  A    between atoms: _454  and  _455
REMARK  185  A    between atoms: _454  and  _457
REMARK  186  A    between atoms: _457  and  _458
REMARK  187  A    between atoms: _458  and  _459
REMARK  188  A    between atoms: _459  and  _460
REMARK  189  A    between atoms: _469  and  _471
REMARK  190  A    between atoms: _471  and  _472
REMARK  191  A    between atoms: _471  and  _474
REMARK  192  A    between atoms: _474  and  _475
REMARK  193  A    between atoms: _480  and  _482
REMARK  194  A    between atoms: _482  and  _483
REMARK  195  A    between atoms: _482  and  _485
REMARK  196  A    between atoms: _485  and  _486
REMARK  197  A    between atoms: _486  and  _487
REMARK  198  A    between atoms: _487  and  _488
REMARK  199  A    between atoms: _497  and  _499
REMARK  200  A    between atoms: _499  and  _500
REMARK  201  A    between atoms: _499  and  _502
REMARK  202  A    between atoms: _502  and  _503
REMARK  203  A    between atoms: _503  and  _504
REMARK  204  A    between atoms: _504  and  _505
REMARK  205  A    between atoms: _514  and  _516
REMARK  206  A    between atoms: _516  and  _517
REMARK  207  A    between atoms: _516  and  _519
REMARK  208  A    between atoms: _519  and  _520
REMARK  209  A    between atoms: _523  and  _525
REMARK  210  A    between atoms: _525  and  _526
REMARK  211  A    between atoms: _525  and  _528
REMARK  212  A    between atoms: _528  and  _529
REMARK                            x       y       z     vdW  Elec       q    Type
REMARK                         _______ _______ _______ _____ _____    ______ ____
ROOT
ATOM      1  O   HOH     1      15.194  10.023   9.654  0.00  0.00    +0.000 OA
ENDROOT
TORSDOF 0
REMARK  Name = ../refined-set-2016/3ivc/3ivc_pocket.pdb
REMARK  212 active torsions:
REMARK  status: ('A' for Active; 'I' for Inactive)
REMARK    1  A    between atoms: _1  and  _3
REMARK    2  A    between atoms: _3  and  _4
REMARK    3  A    between atoms: _3  and  _6
REMARK    4  A    between atoms: _10  and  _11
REMARK    5  A    between atoms: _16  and  _18
REMARK    6  A    between atoms: _18  and  _19
REMARK    7  A    between atoms: _18  and  _21
REMARK    8  A    between atoms: _21  and  _22
REMARK    9  A    between atoms: _25  and  _27
REMARK   10  A    between atoms: _27  and  _28
REMARK   11  A    between atoms: _27  and  _30
REMARK   12  A    between atoms: _30  and  _31
REMARK   13  A    between atoms: _31  and  _32
REMARK   14  A    between atoms: _34  and  _36
REMARK   15  A    between atoms: _36  and  _37
REMARK   16  A    between atoms: _39  and  _41
REMARK   17  A    between atoms: _41  and  _42
REMARK   18  A    between atoms: _45  and  _47
REMARK   19  A    between atoms: _47  and  _48
REMARK   20  A    between atoms: _47  and  _50
REMARK   21  A    between atoms: _50  and  _51
REMARK   22  A    between atoms: _54  and  _56
REMARK   23  A    between atoms: _56  and  _57
REMARK   24  A    between atoms: _56  and  _59
REMARK   25  A    between atoms: _59  and  _60
REMARK   26  A    between atoms: _65  and  _67
REMARK   27  A    between atoms: _67  and  _68
REMARK   28  A    between atoms: _67  and  _70
REMARK   29  A    between atoms: _70  and  _71
REMARK   30  A    between atoms: _71  and  _72
REMARK   31  A    between atoms: _75  and  _77
REMARK   32  A    between atoms: _77  and  _78
REMARK   33  A    between atoms: _80  and  _82
REMARK   34  A    between atoms: _82  and  _83
REMARK   35  A    between atoms: _82  and  _85
REMARK   36  A    between atoms: _85  and  _86
REMARK   37  A    between atoms: _91  and  _93
REMARK   38  A    between atoms: _93  and  _94
REMARK   39  A    between atoms: _93  and  _96
REMARK   40  A    between atoms: _96  and  _97
REMARK   41  A    between atoms: _100  and  _102
REMARK   42  A    between atoms: _102  and  _103
REMARK   43  A    between atoms: _106  and  _108
REMARK   44  A    between atoms: _108  and  _109
REMARK   45  A    between atoms: _108  and  _111
REMARK   46  A    between atoms: _111  and  _112
REMARK   47  A    between atoms: _115  and  _117
REMARK   48  A    between atoms: _117  and  _118
REMARK   49  A    between atoms: _117  and  _120
REMARK   50  A    between atoms: _123  and  _125
REMARK   51  A    between atoms: _125  and  _126
REMARK   52  A    between atoms: _125  and  _128
REMARK   53  A    between atoms: _128  and  _129
REMARK   54  A    between atoms: _131  and  _133
REMARK   55  A    between atoms: _133  and  _134
REMARK   56  A    between atoms: _133  and  _136
REMARK   57  A    between atoms: _136  and  _137
REMARK   58  A    between atoms: _140  and  _142
REMARK   59  A    between atoms: _142  and  _143
REMARK   60  A    between atoms: _142  and  _145
REMARK   61  A    between atoms: _145  and  _146
REMARK   62  A    between atoms: _152  and  _154
REMARK   63  A    between atoms: _154  and  _155
REMARK   64  A    between atoms: _154  and  _157
REMARK   65  A    between atoms: _157  and  _158
REMARK   66  A    between atoms: _163  and  _165
REMARK   67  A    between atoms: _165  and  _166
REMARK   68  A    between atoms: _165  and  _168
REMARK   69  A    between atoms: _168  and  _169
REMARK   70  A    between atoms: _169  and  _170
REMARK   71  A    between atoms: _175  and  _177
REMARK   72  A    between atoms: _177  and  _178
REMARK   73  A    between atoms: _177  and  _180
REMARK   74  A    between atoms: _180  and  _181
REMARK   75  A    between atoms: _186  and  _187
REMARK   76  A    between atoms: _189  and  _191
REMARK   77  A    between atoms: _191  and  _192
REMARK   78  A    between atoms: _191  and  _194
REMARK   79  A    between atoms: _194  and  _195
REMARK   80  A    between atoms: _200  and  _202
REMARK   81  A    between atoms: _202  and  _203
REMARK   82  A    between atoms: _202  and  _205
REMARK   83  A    between atoms: _205  and  _206
REMARK   84  A    between atoms: _212  and  _214
REMARK   85  A    between atoms: _214  and  _215
REMARK   86  A    between atoms: _217  and  _219
REMARK   87  A    between atoms: _219  and  _220
REMARK   88  A    between atoms: _219  and  _222
REMARK   89  A    between atoms: _225  and  _227
REMARK   90  A    between atoms: _227  and  _228
REMARK   91  A    between atoms: _227  and  _230
REMARK   92  A    between atoms: _230  and  _231
REMARK   93  A    between atoms: _234  and  _236
REMARK   94  A    between atoms: _236  and  _237
REMARK   95  A    between atoms: _236  and  _239
REMARK   96  A    between atoms: _242  and  _244
REMARK   97  A    between atoms: _244  and  _245
REMARK   98  A    between atoms: _244  and  _247
REMARK   99  A    between atoms: _250  and  _252
REMARK  100  A    between atoms: _252  and  _253
REMARK  101  A    between atoms: _252  and  _255
REMARK  102  A    between atoms: _255  and  _256
REMARK  103  A    between atoms: _259  and  _261
REMARK  104  A    between atoms: _261  and  _262
REMARK  105  A    between atoms: _261  and  _264
REMARK  106  A    between atoms: _264  and  _265
REMARK  107  A    between atoms: _268  and  _270
REMARK  108  A    between atoms: _270  and  _271
REMARK  109  A    between atoms: _270  and  _273
REMARK  110  A    between atoms: _276  and  _278
REMARK  111  A    between atoms: _278  and  _279
REMARK  112  A    between atoms: _278  and  _281
REMARK  113  A    between atoms: _281  and  _282
REMARK  114  A    between atoms: _288  and  _290
REMARK  115  A    between atoms: _290  and  _291
REMARK  116  A    between atoms: _290  and  _293
REMARK  117  A    between atoms: _293  and  _294
REMARK  118  A    between atoms: _300  and  _302
REMARK  119  A    between atoms: _302  and  _303
REMARK  120  A    between atoms: _305  and  _307
REMARK  121  A    between atoms: _307  and  _308
REMARK  122  A    between atoms: _307  and  _310
REMARK  123  A    between atoms: _310  and  _311
REMARK  124  A    between atoms: _311  and  _312
REMARK  125  A    between atoms: _315  and  _317
REMARK  126  A    between atoms: _317  and  _318
REMARK  127  A    between atoms: _317  and  _320
REMARK  128  A    between atoms: _320  and  _321
REMARK  129  A    between atoms: _321  and  _322
REMARK  130  A    between atoms: _322  and  _323
REMARK  131  A    between atoms: _323  and  _324
REMARK  132  A    between atoms: _328  and  _330
REMARK  133  A    between atoms: _330  and  _331
REMARK  134  A    between atoms: _330  and  _333
REMARK  135  A    between atoms: _333  and  _334
REMARK  136  A    between atoms: _337  and  _339
REMARK  137  A    between atoms: _339  and  _340
REMARK  138  A    between atoms: _339  and  _342
REMARK  139  A    between atoms: _342  and  _343
REMARK  140  A    between atoms: _343  and  _344
REMARK  141  A    between atoms: _349  and  _351
REMARK  142  A    between atoms: _351  and  _352
REMARK  143  A    between atoms: _351  and  _354
REMARK  144  A    between atoms: _354  and  _355
REMARK  145  A    between atoms: _358  and  _360
REMARK  146  A    between atoms: _360  and  _361
REMARK  147  A    between atoms: _363  and  _365
REMARK  148  A    between atoms: _365  and  _366
REMARK  149  A    between atoms: _365  and  _368
REMARK  150  A    between atoms: _372  and  _373
REMARK  151  A    between atoms: _378  and  _380
REMARK  152  A    between atoms: _380  and  _381
REMARK  153  A    between atoms: _380  and  _383
REMARK  154  A    between atoms: _383  and  _384
REMARK  155  A    between atoms: _387  and  _389
REMARK  156  A    between atoms: _389  and  _390
REMARK  157  A    between atoms: _389  and  _392
REMARK  158  A    between atoms: _395  and  _397
REMARK  159  A    between atoms: _397  and  _398
REMARK  160  A    between atoms: _397  and  _400
REMARK  161  A    between atoms: _400  and  _401
REMARK  162  A    between atoms: _401  and  _402
REMARK  163  A    between atoms: _402  and  _403
REMARK  164  A    between atoms: _412  and  _414
REMARK  165  A    between atoms: _414  and  _415
REMARK  166  A    between atoms: _414  and  _417
REMARK  167  A    between atoms: _417  and  _418
REMARK  168  A    between atoms: _421  and  _423
REMARK  169  A    between atoms: _423  and  _424
REMARK  170  A    between atoms: _427  and  _429
REMARK  171  A    between atoms: _429  and  _430
REMARK  172  A    between atoms: _429  and  _432
REMARK  173  A    between atoms: _432  and  _433
REMARK  174  A    between atoms: _433  and  _434
REMARK  175  A    between atoms: _436  and  _438
REMARK  176  A    between atoms: _438  and  _439
REMARK  177  A    between atoms: _438  and  _441
REMARK  178  A    between atoms: _441  and  _442
REMARK  179  A    between atoms: _444  and  _446
REMARK  180  A    between atoms: _446  and  _447
REMARK  181  A    between atoms: _446  and  _449
REMARK  182  A    between atoms: _449  and  _450
REMARK  183  A    between atoms: _452  and  _454
REMARK  184  A    between atoms: _454  and  _455
REMARK  185  A    between atoms: _454  and  _457
REMARK  186  A    between atoms: _457  and  _458
REMARK  187  A    between atoms: _458  and  _459
REMARK  188  A    between atoms: _459  and  _460
REMARK  189  A    between atoms: _469  and  _471
REMARK  190  A    between atoms: _471  and  _472
REMARK  191  A    between atoms: _471  and  _474
REMARK  192  A    between atoms: _474  and  _475
REMARK  193  A    between atoms: _480  and  _482
REMARK  194  A    between atoms: _482  and  _483
REMARK  195  A    between atoms: _482  and  _485
REMARK  196  A    between atoms: _485  and  _486
REMARK  197  A    between atoms: _486  and  _487
REMARK  198  A    between atoms: _487  and  _488
REMARK  199  A    between atoms: _497  and  _499
REMARK  200  A    between atoms: _499  and  _500
REMARK  201  A    between atoms: _499  and  _502
REMARK  202  A    between atoms: _502  and  _503
REMARK  203  A    between atoms: _503  and  _504
REMARK  204  A    between atoms: _504  and  _505
REMARK  205  A    between atoms: _514  and  _516
REMARK  206  A    between atoms: _516  and  _517
REMARK  207  A    between atoms: _516  and  _519
REMARK  208  A    between atoms: _519  and  _520
REMARK  209  A    between atoms: _523  and  _525
REMARK  210  A    between atoms: _525  and  _526
REMARK  211  A    between atoms: _525  and  _528
REMARK  212  A    between atoms: _528  and  _529
REMARK                            x       y       z     vdW  Elec       q    Type
REMARK                         _______ _______ _______ _____ _____    ______ ____
ROOT
ATOM      1  O   HOH     1      23.915   9.887  -1.599  0.00  0.00    +0.000 OA
ENDROOT
TORSDOF 0
REMARK  Name = ../refined-set-2016/3ivc/3ivc_pocket.pdb
REMARK  212 active torsions:
REMARK  status: ('A' for Active; 'I' for Inactive)
REMARK    1  A    between atoms: _1  and  _3
REMARK    2  A    between atoms: _3  and  _4
REMARK    3  A    between atoms: _3  and  _6
REMARK    4  A    between atoms: _10  and  _11
REMARK    5  A    between atoms: _16  and  _18
REMARK    6  A    between atoms: _18  and  _19
REMARK    7  A    between atoms: _18  and  _21
REMARK    8  A    between atoms: _21  and  _22
REMARK    9  A    between atoms: _25  and  _27
REMARK   10  A    between atoms: _27  and  _28
REMARK   11  A    between atoms: _27  and  _30
REMARK   12  A    between atoms: _30  and  _31
REMARK   13  A    between atoms: _31  and  _32
REMARK   14  A    between atoms: _34  and  _36
REMARK   15  A    between atoms: _36  and  _37
REMARK   16  A    between atoms: _39  and  _41
REMARK   17  A    between atoms: _41  and  _42
REMARK   18  A    between atoms: _45  and  _47
REMARK   19  A    between atoms: _47  and  _48
REMARK   20  A    between atoms: _47  and  _50
REMARK   21  A    between atoms: _50  and  _51
REMARK   22  A    between atoms: _54  and  _56
REMARK   23  A    between atoms: _56  and  _57
REMARK   24  A    between atoms: _56  and  _59
REMARK   25  A    between atoms: _59  and  _60
REMARK   26  A    between atoms: _65  and  _67
REMARK   27  A    between atoms: _67  and  _68
REMARK   28  A    between atoms: _67  and  _70
REMARK   29  A    between atoms: _70  and  _71
REMARK   30  A    between atoms: _71  and  _72
REMARK   31  A    between atoms: _75  and  _77
REMARK   32  A    between atoms: _77  and  _78
REMARK   33  A    between atoms: _80  and  _82
REMARK   34  A    between atoms: _82  and  _83
REMARK   35  A    between atoms: _82  and  _85
REMARK   36  A    between atoms: _85  and  _86
REMARK   37  A    between atoms: _91  and  _93
REMARK   38  A    between atoms: _93  and  _94
REMARK   39  A    between atoms: _93  and  _96
REMARK   40  A    between atoms: _96  and  _97
REMARK   41  A    between atoms: _100  and  _102
REMARK   42  A    between atoms: _102  and  _103
REMARK   43  A    between atoms: _106  and  _108
REMARK   44  A    between atoms: _108  and  _109
REMARK   45  A    between atoms: _108  and  _111
REMARK   46  A    between atoms: _111  and  _112
REMARK   47  A    between atoms: _115  and  _117
REMARK   48  A    between atoms: _117  and  _118
REMARK   49  A    between atoms: _117  and  _120
REMARK   50  A    between atoms: _123  and  _125
REMARK   51  A    between atoms: _125  and  _126
REMARK   52  A    between atoms: _125  and  _128
REMARK   53  A    between atoms: _128  and  _129
REMARK   54  A    between atoms: _131  and  _133
REMARK   55  A    between atoms: _133  and  _134
REMARK   56  A    between atoms: _133  and  _136
REMARK   57  A    between atoms: _136  and  _137
REMARK   58  A    between atoms: _140  and  _142
REMARK   59  A    between atoms: _142  and  _143
REMARK   60  A    between atoms: _142  and  _145
REMARK   61  A    between atoms: _145  and  _146
REMARK   62  A    between atoms: _152  and  _154
REMARK   63  A    between atoms: _154  and  _155
REMARK   64  A    between atoms: _154  and  _157
REMARK   65  A    between atoms: _157  and  _158
REMARK   66  A    between atoms: _163  and  _165
REMARK   67  A    between atoms: _165  and  _166
REMARK   68  A    between atoms: _165  and  _168
REMARK   69  A    between atoms: _168  and  _169
REMARK   70  A    between atoms: _169  and  _170
REMARK   71  A    between atoms: _175  and  _177
REMARK   72  A    between atoms: _177  and  _178
REMARK   73  A    between atoms: _177  and  _180
REMARK   74  A    between atoms: _180  and  _181
REMARK   75  A    between atoms: _186  and  _187
REMARK   76  A    between atoms: _189  and  _191
REMARK   77  A    between atoms: _191  and  _192
REMARK   78  A    between atoms: _191  and  _194
REMARK   79  A    between atoms: _194  and  _195
REMARK   80  A    between atoms: _200  and  _202
REMARK   81  A    between atoms: _202  and  _203
REMARK   82  A    between atoms: _202  and  _205
REMARK   83  A    between atoms: _205  and  _206
REMARK   84  A    between atoms: _212  and  _214
REMARK   85  A    between atoms: _214  and  _215
REMARK   86  A    between atoms: _217  and  _219
REMARK   87  A    between atoms: _219  and  _220
REMARK   88  A    between atoms: _219  and  _222
REMARK   89  A    between atoms: _225  and  _227
REMARK   90  A    between atoms: _227  and  _228
REMARK   91  A    between atoms: _227  and  _230
REMARK   92  A    between atoms: _230  and  _231
REMARK   93  A    between atoms: _234  and  _236
REMARK   94  A    between atoms: _236  and  _237
REMARK   95  A    between atoms: _236  and  _239
REMARK   96  A    between atoms: _242  and  _244
REMARK   97  A    between atoms: _244  and  _245
REMARK   98  A    between atoms: _244  and  _247
REMARK   99  A    between atoms: _250  and  _252
REMARK  100  A    between atoms: _252  and  _253
REMARK  101  A    between atoms: _252  and  _255
REMARK  102  A    between atoms: _255  and  _256
REMARK  103  A    between atoms: _259  and  _261
REMARK  104  A    between atoms: _261  and  _262
REMARK  105  A    between atoms: _261  and  _264
REMARK  106  A    between atoms: _264  and  _265
REMARK  107  A    between atoms: _268  and  _270
REMARK  108  A    between atoms: _270  and  _271
REMARK  109  A    between atoms: _270  and  _273
REMARK  110  A    between atoms: _276  and  _278
REMARK  111  A    between atoms: _278  and  _279
REMARK  112  A    between atoms: _278  and  _281
REMARK  113  A    between atoms: _281  and  _282
REMARK  114  A    between atoms: _288  and  _290
REMARK  115  A    between atoms: _290  and  _291
REMARK  116  A    between atoms: _290  and  _293
REMARK  117  A    between atoms: _293  and  _294
REMARK  118  A    between atoms: _300  and  _302
REMARK  119  A    between atoms: _302  and  _303
REMARK  120  A    between atoms: _305  and  _307
REMARK  121  A    between atoms: _307  and  _308
REMARK  122  A    between atoms: _307  and  _310
REMARK  123  A    between atoms: _310  and  _311
REMARK  124  A    between atoms: _311  and  _312
REMARK  125  A    between atoms: _315  and  _317
REMARK  126  A    between atoms: _317  and  _318
REMARK  127  A    between atoms: _317  and  _320
REMARK  128  A    between atoms: _320  and  _321
REMARK  129  A    between atoms: _321  and  _322
REMARK  130  A    between atoms: _322  and  _323
REMARK  131  A    between atoms: _323  and  _324
REMARK  132  A    between atoms: _328  and  _330
REMARK  133  A    between atoms: _330  and  _331
REMARK  134  A    between atoms: _330  and  _333
REMARK  135  A    between atoms: _333  and  _334
REMARK  136  A    between atoms: _337  and  _339
REMARK  137  A    between atoms: _339  and  _340
REMARK  138  A    between atoms: _339  and  _342
REMARK  139  A    between atoms: _342  and  _343
REMARK  140  A    between atoms: _343  and  _344
REMARK  141  A    between atoms: _349  and  _351
REMARK  142  A    between atoms: _351  and  _352
REMARK  143  A    between atoms: _351  and  _354
REMARK  144  A    between atoms: _354  and  _355
REMARK  145  A    between atoms: _358  and  _360
REMARK  146  A    between atoms: _360  and  _361
REMARK  147  A    between atoms: _363  and  _365
REMARK  148  A    between atoms: _365  and  _366
REMARK  149  A    between atoms: _365  and  _368
REMARK  150  A    between atoms: _372  and  _373
REMARK  151  A    between atoms: _378  and  _380
REMARK  152  A    between atoms: _380  and  _381
REMARK  153  A    between atoms: _380  and  _383
REMARK  154  A    between atoms: _383  and  _384
REMARK  155  A    between atoms: _387  and  _389
REMARK  156  A    between atoms: _389  and  _390
REMARK  157  A    between atoms: _389  and  _392
REMARK  158  A    between atoms: _395  and  _397
REMARK  159  A    between atoms: _397  and  _398
REMARK  160  A    between atoms: _397  and  _400
REMARK  161  A    between atoms: _400  and  _401
REMARK  162  A    between atoms: _401  and  _402
REMARK  163  A    between atoms: _402  and  _403
REMARK  164  A    between atoms: _412  and  _414
REMARK  165  A    between atoms: _414  and  _415
REMARK  166  A    between atoms: _414  and  _417
REMARK  167  A    between atoms: _417  and  _418
REMARK  168  A    between atoms: _421  and  _423
REMARK  169  A    between atoms: _423  and  _424
REMARK  170  A    between atoms: _427  and  _429
REMARK  171  A    between atoms: _429  and  _430
REMARK  172  A    between atoms: _429  and  _432
REMARK  173  A    between atoms: _432  and  _433
REMARK  174  A    between atoms: _433  and  _434
REMARK  175  A    between atoms: _436  and  _438
REMARK  176  A    between atoms: _438  and  _439
REMARK  177  A    between atoms: _438  and  _441
REMARK  178  A    between atoms: _441  and  _442
REMARK  179  A    between atoms: _444  and  _446
REMARK  180  A    between atoms: _446  and  _447
REMARK  181  A    between atoms: _446  and  _449
REMARK  182  A    between atoms: _449  and  _450
REMARK  183  A    between atoms: _452  and  _454
REMARK  184  A    between atoms: _454  and  _455
REMARK  185  A    between atoms: _454  and  _457
REMARK  186  A    between atoms: _457  and  _458
REMARK  187  A    between atoms: _458  and  _459
REMARK  188  A    between atoms: _459  and  _460
REMARK  189  A    between atoms: _469  and  _471
REMARK  190  A    between atoms: _471  and  _472
REMARK  191  A    between atoms: _471  and  _474
REMARK  192  A    between atoms: _474  and  _475
REMARK  193  A    between atoms: _480  and  _482
REMARK  194  A    between atoms: _482  and  _483
REMARK  195  A    between atoms: _482  and  _485
REMARK  196  A    between atoms: _485  and  _486
REMARK  197  A    between atoms: _486  and  _487
REMARK  198  A    between atoms: _487  and  _488
REMARK  199  A    between atoms: _497  and  _499
REMARK  200  A    between atoms: _499  and  _500
REMARK  201  A    between atoms: _499  and  _502
REMARK  202  A    between atoms: _502  and  _503
REMARK  203  A    between atoms: _503  and  _504
REMARK  204  A    between atoms: _504  and  _505
REMARK  205  A    between atoms: _514  and  _516
REMARK  206  A    between atoms: _516  and  _517
REMARK  207  A    between atoms: _516  and  _519
REMARK  208  A    between atoms: _519  and  _520
REMARK  209  A    between atoms: _523  and  _525
REMARK  210  A    between atoms: _525  and  _526
REMARK  211  A    between atoms: _525  and  _528
REMARK  212  A    between atoms: _528  and  _529
REMARK                            x       y       z     vdW  Elec       q    Type
REMARK                         _______ _______ _______ _____ _____    ______ ____
ROOT
ATOM      1  O   HOH     1      25.177  12.083  -3.303  0.00  0.00    +0.000 OA
ENDROOT
TORSDOF 0
REMARK  Name = ../refined-set-2016/3ivc/3ivc_pocket.pdb
REMARK  212 active torsions:
REMARK  status: ('A' for Active; 'I' for Inactive)
REMARK    1  A    between atoms: _1  and  _3
REMARK    2  A    between atoms: _3  and  _4
REMARK    3  A    between atoms: _3  and  _6
REMARK    4  A    between atoms: _10  and  _11
REMARK    5  A    between atoms: _16  and  _18
REMARK    6  A    between atoms: _18  and  _19
REMARK    7  A    between atoms: _18  and  _21
REMARK    8  A    between atoms: _21  and  _22
REMARK    9  A    between atoms: _25  and  _27
REMARK   10  A    between atoms: _27  and  _28
REMARK   11  A    between atoms: _27  and  _30
REMARK   12  A    between atoms: _30  and  _31
REMARK   13  A    between atoms: _31  and  _32
REMARK   14  A    between atoms: _34  and  _36
REMARK   15  A    between atoms: _36  and  _37
REMARK   16  A    between atoms: _39  and  _41
REMARK   17  A    between atoms: _41  and  _42
REMARK   18  A    between atoms: _45  and  _47
REMARK   19  A    between atoms: _47  and  _48
REMARK   20  A    between atoms: _47  and  _50
REMARK   21  A    between atoms: _50  and  _51
REMARK   22  A    between atoms: _54  and  _56
REMARK   23  A    between atoms: _56  and  _57
REMARK   24  A    between atoms: _56  and  _59
REMARK   25  A    between atoms: _59  and  _60
REMARK   26  A    between atoms: _65  and  _67
REMARK   27  A    between atoms: _67  and  _68
REMARK   28  A    between atoms: _67  and  _70
REMARK   29  A    between atoms: _70  and  _71
REMARK   30  A    between atoms: _71  and  _72
REMARK   31  A    between atoms: _75  and  _77
REMARK   32  A    between atoms: _77  and  _78
REMARK   33  A    between atoms: _80  and  _82
REMARK   34  A    between atoms: _82  and  _83
REMARK   35  A    between atoms: _82  and  _85
REMARK   36  A    between atoms: _85  and  _86
REMARK   37  A    between atoms: _91  and  _93
REMARK   38  A    between atoms: _93  and  _94
REMARK   39  A    between atoms: _93  and  _96
REMARK   40  A    between atoms: _96  and  _97
REMARK   41  A    between atoms: _100  and  _102
REMARK   42  A    between atoms: _102  and  _103
REMARK   43  A    between atoms: _106  and  _108
REMARK   44  A    between atoms: _108  and  _109
REMARK   45  A    between atoms: _108  and  _111
REMARK   46  A    between atoms: _111  and  _112
REMARK   47  A    between atoms: _115  and  _117
REMARK   48  A    between atoms: _117  and  _118
REMARK   49  A    between atoms: _117  and  _120
REMARK   50  A    between atoms: _123  and  _125
REMARK   51  A    between atoms: _125  and  _126
REMARK   52  A    between atoms: _125  and  _128
REMARK   53  A    between atoms: _128  and  _129
REMARK   54  A    between atoms: _131  and  _133
REMARK   55  A    between atoms: _133  and  _134
REMARK   56  A    between atoms: _133  and  _136
REMARK   57  A    between atoms: _136  and  _137
REMARK   58  A    between atoms: _140  and  _142
REMARK   59  A    between atoms: _142  and  _143
REMARK   60  A    between atoms: _142  and  _145
REMARK   61  A    between atoms: _145  and  _146
REMARK   62  A    between atoms: _152  and  _154
REMARK   63  A    between atoms: _154  and  _155
REMARK   64  A    between atoms: _154  and  _157
REMARK   65  A    between atoms: _157  and  _158
REMARK   66  A    between atoms: _163  and  _165
REMARK   67  A    between atoms: _165  and  _166
REMARK   68  A    between atoms: _165  and  _168
REMARK   69  A    between atoms: _168  and  _169
REMARK   70  A    between atoms: _169  and  _170
REMARK   71  A    between atoms: _175  and  _177
REMARK   72  A    between atoms: _177  and  _178
REMARK   73  A    between atoms: _177  and  _180
REMARK   74  A    between atoms: _180  and  _181
REMARK   75  A    between atoms: _186  and  _187
REMARK   76  A    between atoms: _189  and  _191
REMARK   77  A    between atoms: _191  and  _192
REMARK   78  A    between atoms: _191  and  _194
REMARK   79  A    between atoms: _194  and  _195
REMARK   80  A    between atoms: _200  and  _202
REMARK   81  A    between atoms: _202  and  _203
REMARK   82  A    between atoms: _202  and  _205
REMARK   83  A    between atoms: _205  and  _206
REMARK   84  A    between atoms: _212  and  _214
REMARK   85  A    between atoms: _214  and  _215
REMARK   86  A    between atoms: _217  and  _219
REMARK   87  A    between atoms: _219  and  _220
REMARK   88  A    between atoms: _219  and  _222
REMARK   89  A    between atoms: _225  and  _227
REMARK   90  A    between atoms: _227  and  _228
REMARK   91  A    between atoms: _227  and  _230
REMARK   92  A    between atoms: _230  and  _231
REMARK   93  A    between atoms: _234  and  _236
REMARK   94  A    between atoms: _236  and  _237
REMARK   95  A    between atoms: _236  and  _239
REMARK   96  A    between atoms: _242  and  _244
REMARK   97  A    between atoms: _244  and  _245
REMARK   98  A    between atoms: _244  and  _247
REMARK   99  A    between atoms: _250  and  _252
REMARK  100  A    between atoms: _252  and  _253
REMARK  101  A    between atoms: _252  and  _255
REMARK  102  A    between atoms: _255  and  _256
REMARK  103  A    between atoms: _259  and  _261
REMARK  104  A    between atoms: _261  and  _262
REMARK  105  A    between atoms: _261  and  _264
REMARK  106  A    between atoms: _264  and  _265
REMARK  107  A    between atoms: _268  and  _270
REMARK  108  A    between atoms: _270  and  _271
REMARK  109  A    between atoms: _270  and  _273
REMARK  110  A    between atoms: _276  and  _278
REMARK  111  A    between atoms: _278  and  _279
REMARK  112  A    between atoms: _278  and  _281
REMARK  113  A    between atoms: _281  and  _282
REMARK  114  A    between atoms: _288  and  _290
REMARK  115  A    between atoms: _290  and  _291
REMARK  116  A    between atoms: _290  and  _293
REMARK  117  A    between atoms: _293  and  _294
REMARK  118  A    between atoms: _300  and  _302
REMARK  119  A    between atoms: _302  and  _303
REMARK  120  A    between atoms: _305  and  _307
REMARK  121  A    between atoms: _307  and  _308
REMARK  122  A    between atoms: _307  and  _310
REMARK  123  A    between atoms: _310  and  _311
REMARK  124  A    between atoms: _311  and  _312
REMARK  125  A    between atoms: _315  and  _317
REMARK  126  A    between atoms: _317  and  _318
REMARK  127  A    between atoms: _317  and  _320
REMARK  128  A    between atoms: _320  and  _321
REMARK  129  A    between atoms: _321  and  _322
REMARK  130  A    between atoms: _322  and  _323
REMARK  131  A    between atoms: _323  and  _324
REMARK  132  A    between atoms: _328  and  _330
REMARK  133  A    between atoms: _330  and  _331
REMARK  134  A    between atoms: _330  and  _333
REMARK  135  A    between atoms: _333  and  _334
REMARK  136  A    between atoms: _337  and  _339
REMARK  137  A    between atoms: _339  and  _340
REMARK  138  A    between atoms: _339  and  _342
REMARK  139  A    between atoms: _342  and  _343
REMARK  140  A    between atoms: _343  and  _344
REMARK  141  A    between atoms: _349  and  _351
REMARK  142  A    between atoms: _351  and  _352
REMARK  143  A    between atoms: _351  and  _354
REMARK  144  A    between atoms: _354  and  _355
REMARK  145  A    between atoms: _358  and  _360
REMARK  146  A    between atoms: _360  and  _361
REMARK  147  A    between atoms: _363  and  _365
REMARK  148  A    between atoms: _365  and  _366
REMARK  149  A    between atoms: _365  and  _368
REMARK  150  A    between atoms: _372  and  _373
REMARK  151  A    between atoms: _378  and  _380
REMARK  152  A    between atoms: _380  and  _381
REMARK  153  A    between atoms: _380  and  _383
REMARK  154  A    between atoms: _383  and  _384
REMARK  155  A    between atoms: _387  and  _389
REMARK  156  A    between atoms: _389  and  _390
REMARK  157  A    between atoms: _389  and  _392
REMARK  158  A    between atoms: _395  and  _397
REMARK  159  A    between atoms: _397  and  _398
REMARK  160  A    between atoms: _397  and  _400
REMARK  161  A    between atoms: _400  and  _401
REMARK  162  A    between atoms: _401  and  _402
REMARK  163  A    between atoms: _402  and  _403
REMARK  164  A    between atoms: _412  and  _414
REMARK  165  A    between atoms: _414  and  _415
REMARK  166  A    between atoms: _414  and  _417
REMARK  167  A    between atoms: _417  and  _418
REMARK  168  A    between atoms: _421  and  _423
REMARK  169  A    between atoms: _423  and  _424
REMARK  170  A    between atoms: _427  and  _429
REMARK  171  A    between atoms: _429  and  _430
REMARK  172  A    between atoms: _429  and  _432
REMARK  173  A    between atoms: _432  and  _433
REMARK  174  A    between atoms: _433  and  _434
REMARK  175  A    between atoms: _436  and  _438
REMARK  176  A    between atoms: _438  and  _439
REMARK  177  A    between atoms: _438  and  _441
REMARK  178  A    between atoms: _441  and  _442
REMARK  179  A    between atoms: _444  and  _446
REMARK  180  A    between atoms: _446  and  _447
REMARK  181  A    between atoms: _446  and  _449
REMARK  182  A    between atoms: _449  and  _450
REMARK  183  A    between atoms: _452  and  _454
REMARK  184  A    between atoms: _454  and  _455
REMARK  185  A    between atoms: _454  and  _457
REMARK  186  A    between atoms: _457  and  _458
REMARK  187  A    between atoms: _458  and  _459
REMARK  188  A    between atoms: _459  and  _460
REMARK  189  A    between atoms: _469  and  _471
REMARK  190  A    between atoms: _471  and  _472
REMARK  191  A    between atoms: _471  and  _474
REMARK  192  A    between atoms: _474  and  _475
REMARK  193  A    between atoms: _480  and  _482
REMARK  194  A    between atoms: _482  and  _483
REMARK  195  A    between atoms: _482  and  _485
REMARK  196  A    between atoms: _485  and  _486
REMARK  197  A    between atoms: _486  and  _487
REMARK  198  A    between atoms: _487  and  _488
REMARK  199  A    between atoms: _497  and  _499
REMARK  200  A    between atoms: _499  and  _500
REMARK  201  A    between atoms: _499  and  _502
REMARK  202  A    between atoms: _502  and  _503
REMARK  203  A    between atoms: _503  and  _504
REMARK  204  A    between atoms: _504  and  _505
REMARK  205  A    between atoms: _514  and  _516
REMARK  206  A    between atoms: _516  and  _517
REMARK  207  A    between atoms: _516  and  _519
REMARK  208  A    between atoms: _519  and  _520
REMARK  209  A    between atoms: _523  and  _525
REMARK  210  A    between atoms: _525  and  _526
REMARK  211  A    between atoms: _525  and  _528
REMARK  212  A    between atoms: _528  and  _529
REMARK                            x       y       z     vdW  Elec       q    Type
REMARK                         _______ _______ _______ _____ _____    ______ ____
ROOT
ATOM      1  O   HOH     1      15.087   6.408  -0.839  0.00  0.00    +0.000 OA
ENDROOT
TORSDOF 0
REMARK  Name = ../refined-set-2016/3ivc/3ivc_pocket.pdb
REMARK  212 active torsions:
REMARK  status: ('A' for Active; 'I' for Inactive)
REMARK    1  A    between atoms: _1  and  _3
REMARK    2  A    between atoms: _3  and  _4
REMARK    3  A    between atoms: _3  and  _6
REMARK    4  A    between atoms: _10  and  _11
REMARK    5  A    between atoms: _16  and  _18
REMARK    6  A    between atoms: _18  and  _19
REMARK    7  A    between atoms: _18  and  _21
REMARK    8  A    between atoms: _21  and  _22
REMARK    9  A    between atoms: _25  and  _27
REMARK   10  A    between atoms: _27  and  _28
REMARK   11  A    between atoms: _27  and  _30
REMARK   12  A    between atoms: _30  and  _31
REMARK   13  A    between atoms: _31  and  _32
REMARK   14  A    between atoms: _34  and  _36
REMARK   15  A    between atoms: _36  and  _37
REMARK   16  A    between atoms: _39  and  _41
REMARK   17  A    between atoms: _41  and  _42
REMARK   18  A    between atoms: _45  and  _47
REMARK   19  A    between atoms: _47  and  _48
REMARK   20  A    between atoms: _47  and  _50
REMARK   21  A    between atoms: _50  and  _51
REMARK   22  A    between atoms: _54  and  _56
REMARK   23  A    between atoms: _56  and  _57
REMARK   24  A    between atoms: _56  and  _59
REMARK   25  A    between atoms: _59  and  _60
REMARK   26  A    between atoms: _65  and  _67
REMARK   27  A    between atoms: _67  and  _68
REMARK   28  A    between atoms: _67  and  _70
REMARK   29  A    between atoms: _70  and  _71
REMARK   30  A    between atoms: _71  and  _72
REMARK   31  A    between atoms: _75  and  _77
REMARK   32  A    between atoms: _77  and  _78
REMARK   33  A    between atoms: _80  and  _82
REMARK   34  A    between atoms: _82  and  _83
REMARK   35  A    between atoms: _82  and  _85
REMARK   36  A    between atoms: _85  and  _86
REMARK   37  A    between atoms: _91  and  _93
REMARK   38  A    between atoms: _93  and  _94
REMARK   39  A    between atoms: _93  and  _96
REMARK   40  A    between atoms: _96  and  _97
REMARK   41  A    between atoms: _100  and  _102
REMARK   42  A    between atoms: _102  and  _103
REMARK   43  A    between atoms: _106  and  _108
REMARK   44  A    between atoms: _108  and  _109
REMARK   45  A    between atoms: _108  and  _111
REMARK   46  A    between atoms: _111  and  _112
REMARK   47  A    between atoms: _115  and  _117
REMARK   48  A    between atoms: _117  and  _118
REMARK   49  A    between atoms: _117  and  _120
REMARK   50  A    between atoms: _123  and  _125
REMARK   51  A    between atoms: _125  and  _126
REMARK   52  A    between atoms: _125  and  _128
REMARK   53  A    between atoms: _128  and  _129
REMARK   54  A    between atoms: _131  and  _133
REMARK   55  A    between atoms: _133  and  _134
REMARK   56  A    between atoms: _133  and  _136
REMARK   57  A    between atoms: _136  and  _137
REMARK   58  A    between atoms: _140  and  _142
REMARK   59  A    between atoms: _142  and  _143
REMARK   60  A    between atoms: _142  and  _145
REMARK   61  A    between atoms: _145  and  _146
REMARK   62  A    between atoms: _152  and  _154
REMARK   63  A    between atoms: _154  and  _155
REMARK   64  A    between atoms: _154  and  _157
REMARK   65  A    between atoms: _157  and  _158
REMARK   66  A    between atoms: _163  and  _165
REMARK   67  A    between atoms: _165  and  _166
REMARK   68  A    between atoms: _165  and  _168
REMARK   69  A    between atoms: _168  and  _169
REMARK   70  A    between atoms: _169  and  _170
REMARK   71  A    between atoms: _175  and  _177
REMARK   72  A    between atoms: _177  and  _178
REMARK   73  A    between atoms: _177  and  _180
REMARK   74  A    between atoms: _180  and  _181
REMARK   75  A    between atoms: _186  and  _187
REMARK   76  A    between atoms: _189  and  _191
REMARK   77  A    between atoms: _191  and  _192
REMARK   78  A    between atoms: _191  and  _194
REMARK   79  A    between atoms: _194  and  _195
REMARK   80  A    between atoms: _200  and  _202
REMARK   81  A    between atoms: _202  and  _203
REMARK   82  A    between atoms: _202  and  _205
REMARK   83  A    between atoms: _205  and  _206
REMARK   84  A    between atoms: _212  and  _214
REMARK   85  A    between atoms: _214  and  _215
REMARK   86  A    between atoms: _217  and  _219
REMARK   87  A    between atoms: _219  and  _220
REMARK   88  A    between atoms: _219  and  _222
REMARK   89  A    between atoms: _225  and  _227
REMARK   90  A    between atoms: _227  and  _228
REMARK   91  A    between atoms: _227  and  _230
REMARK   92  A    between atoms: _230  and  _231
REMARK   93  A    between atoms: _234  and  _236
REMARK   94  A    between atoms: _236  and  _237
REMARK   95  A    between atoms: _236  and  _239
REMARK   96  A    between atoms: _242  and  _244
REMARK   97  A    between atoms: _244  and  _245
REMARK   98  A    between atoms: _244  and  _247
REMARK   99  A    between atoms: _250  and  _252
REMARK  100  A    between atoms: _252  and  _253
REMARK  101  A    between atoms: _252  and  _255
REMARK  102  A    between atoms: _255  and  _256
REMARK  103  A    between atoms: _259  and  _261
REMARK  104  A    between atoms: _261  and  _262
REMARK  105  A    between atoms: _261  and  _264
REMARK  106  A    between atoms: _264  and  _265
REMARK  107  A    between atoms: _268  and  _270
REMARK  108  A    between atoms: _270  and  _271
REMARK  109  A    between atoms: _270  and  _273
REMARK  110  A    between atoms: _276  and  _278
REMARK  111  A    between atoms: _278  and  _279
REMARK  112  A    between atoms: _278  and  _281
REMARK  113  A    between atoms: _281  and  _282
REMARK  114  A    between atoms: _288  and  _290
REMARK  115  A    between atoms: _290  and  _291
REMARK  116  A    between atoms: _290  and  _293
REMARK  117  A    between atoms: _293  and  _294
REMARK  118  A    between atoms: _300  and  _302
REMARK  119  A    between atoms: _302  and  _303
REMARK  120  A    between atoms: _305  and  _307
REMARK  121  A    between atoms: _307  and  _308
REMARK  122  A    between atoms: _307  and  _310
REMARK  123  A    between atoms: _310  and  _311
REMARK  124  A    between atoms: _311  and  _312
REMARK  125  A    between atoms: _315  and  _317
REMARK  126  A    between atoms: _317  and  _318
REMARK  127  A    between atoms: _317  and  _320
REMARK  128  A    between atoms: _320  and  _321
REMARK  129  A    between atoms: _321  and  _322
REMARK  130  A    between atoms: _322  and  _323
REMARK  131  A    between atoms: _323  and  _324
REMARK  132  A    between atoms: _328  and  _330
REMARK  133  A    between atoms: _330  and  _331
REMARK  134  A    between atoms: _330  and  _333
REMARK  135  A    between atoms: _333  and  _334
REMARK  136  A    between atoms: _337  and  _339
REMARK  137  A    between atoms: _339  and  _340
REMARK  138  A    between atoms: _339  and  _342
REMARK  139  A    between atoms: _342  and  _343
REMARK  140  A    between atoms: _343  and  _344
REMARK  141  A    between atoms: _349  and  _351
REMARK  142  A    between atoms: _351  and  _352
REMARK  143  A    between atoms: _351  and  _354
REMARK  144  A    between atoms: _354  and  _355
REMARK  145  A    between atoms: _358  and  _360
REMARK  146  A    between atoms: _360  and  _361
REMARK  147  A    between atoms: _363  and  _365
REMARK  148  A    between atoms: _365  and  _366
REMARK  149  A    between atoms: _365  and  _368
REMARK  150  A    between atoms: _372  and  _373
REMARK  151  A    between atoms: _378  and  _380
REMARK  152  A    between atoms: _380  and  _381
REMARK  153  A    between atoms: _380  and  _383
REMARK  154  A    between atoms: _383  and  _384
REMARK  155  A    between atoms: _387  and  _389
REMARK  156  A    between atoms: _389  and  _390
REMARK  157  A    between atoms: _389  and  _392
REMARK  158  A    between atoms: _395  and  _397
REMARK  159  A    between atoms: _397  and  _398
REMARK  160  A    between atoms: _397  and  _400
REMARK  161  A    between atoms: _400  and  _401
REMARK  162  A    between atoms: _401  and  _402
REMARK  163  A    between atoms: _402  and  _403
REMARK  164  A    between atoms: _412  and  _414
REMARK  165  A    between atoms: _414  and  _415
REMARK  166  A    between atoms: _414  and  _417
REMARK  167  A    between atoms: _417  and  _418
REMARK  168  A    between atoms: _421  and  _423
REMARK  169  A    between atoms: _423  and  _424
REMARK  170  A    between atoms: _427  and  _429
REMARK  171  A    between atoms: _429  and  _430
REMARK  172  A    between atoms: _429  and  _432
REMARK  173  A    between atoms: _432  and  _433
REMARK  174  A    between atoms: _433  and  _434
REMARK  175  A    between atoms: _436  and  _438
REMARK  176  A    between atoms: _438  and  _439
REMARK  177  A    between atoms: _438  and  _441
REMARK  178  A    between atoms: _441  and  _442
REMARK  179  A    between atoms: _444  and  _446
REMARK  180  A    between atoms: _446  and  _447
REMARK  181  A    between atoms: _446  and  _449
REMARK  182  A    between atoms: _449  and  _450
REMARK  183  A    between atoms: _452  and  _454
REMARK  184  A    between atoms: _454  and  _455
REMARK  185  A    between atoms: _454  and  _457
REMARK  186  A    between atoms: _457  and  _458
REMARK  187  A    between atoms: _458  and  _459
REMARK  188  A    between atoms: _459  and  _460
REMARK  189  A    between atoms: _469  and  _471
REMARK  190  A    between atoms: _471  and  _472
REMARK  191  A    between atoms: _471  and  _474
REMARK  192  A    between atoms: _474  and  _475
REMARK  193  A    between atoms: _480  and  _482
REMARK  194  A    between atoms: _482  and  _483
REMARK  195  A    between atoms: _482  and  _485
REMARK  196  A    between atoms: _485  and  _486
REMARK  197  A    between atoms: _486  and  _487
REMARK  198  A    between atoms: _487  and  _488
REMARK  199  A    between atoms: _497  and  _499
REMARK  200  A    between atoms: _499  and  _500
REMARK  201  A    between atoms: _499  and  _502
REMARK  202  A    between atoms: _502  and  _503
REMARK  203  A    between atoms: _503  and  _504
REMARK  204  A    between atoms: _504  and  _505
REMARK  205  A    between atoms: _514  and  _516
REMARK  206  A    between atoms: _516  and  _517
REMARK  207  A    between atoms: _516  and  _519
REMARK  208  A    between atoms: _519  and  _520
REMARK  209  A    between atoms: _523  and  _525
REMARK  210  A    between atoms: _525  and  _526
REMARK  211  A    between atoms: _525  and  _528
REMARK  212  A    between atoms: _528  and  _529
REMARK                            x       y       z     vdW  Elec       q    Type
REMARK                         _______ _______ _______ _____ _____    ______ ____
ROOT
ATOM      1  O   HOH     1      13.590   4.285   1.840  0.00  0.00    +0.000 OA
ENDROOT
TORSDOF 0
REMARK  Name = ../refined-set-2016/3ivc/3ivc_pocket.pdb
REMARK  212 active torsions:
REMARK  status: ('A' for Active; 'I' for Inactive)
REMARK    1  A    between atoms: _1  and  _3
REMARK    2  A    between atoms: _3  and  _4
REMARK    3  A    between atoms: _3  and  _6
REMARK    4  A    between atoms: _10  and  _11
REMARK    5  A    between atoms: _16  and  _18
REMARK    6  A    between atoms: _18  and  _19
REMARK    7  A    between atoms: _18  and  _21
REMARK    8  A    between atoms: _21  and  _22
REMARK    9  A    between atoms: _25  and  _27
REMARK   10  A    between atoms: _27  and  _28
REMARK   11  A    between atoms: _27  and  _30
REMARK   12  A    between atoms: _30  and  _31
REMARK   13  A    between atoms: _31  and  _32
REMARK   14  A    between atoms: _34  and  _36
REMARK   15  A    between atoms: _36  and  _37
REMARK   16  A    between atoms: _39  and  _41
REMARK   17  A    between atoms: _41  and  _42
REMARK   18  A    between atoms: _45  and  _47
REMARK   19  A    between atoms: _47  and  _48
REMARK   20  A    between atoms: _47  and  _50
REMARK   21  A    between atoms: _50  and  _51
REMARK   22  A    between atoms: _54  and  _56
REMARK   23  A    between atoms: _56  and  _57
REMARK   24  A    between atoms: _56  and  _59
REMARK   25  A    between atoms: _59  and  _60
REMARK   26  A    between atoms: _65  and  _67
REMARK   27  A    between atoms: _67  and  _68
REMARK   28  A    between atoms: _67  and  _70
REMARK   29  A    between atoms: _70  and  _71
REMARK   30  A    between atoms: _71  and  _72
REMARK   31  A    between atoms: _75  and  _77
REMARK   32  A    between atoms: _77  and  _78
REMARK   33  A    between atoms: _80  and  _82
REMARK   34  A    between atoms: _82  and  _83
REMARK   35  A    between atoms: _82  and  _85
REMARK   36  A    between atoms: _85  and  _86
REMARK   37  A    between atoms: _91  and  _93
REMARK   38  A    between atoms: _93  and  _94
REMARK   39  A    between atoms: _93  and  _96
REMARK   40  A    between atoms: _96  and  _97
REMARK   41  A    between atoms: _100  and  _102
REMARK   42  A    between atoms: _102  and  _103
REMARK   43  A    between atoms: _106  and  _108
REMARK   44  A    between atoms: _108  and  _109
REMARK   45  A    between atoms: _108  and  _111
REMARK   46  A    between atoms: _111  and  _112
REMARK   47  A    between atoms: _115  and  _117
REMARK   48  A    between atoms: _117  and  _118
REMARK   49  A    between atoms: _117  and  _120
REMARK   50  A    between atoms: _123  and  _125
REMARK   51  A    between atoms: _125  and  _126
REMARK   52  A    between atoms: _125  and  _128
REMARK   53  A    between atoms: _128  and  _129
REMARK   54  A    between atoms: _131  and  _133
REMARK   55  A    between atoms: _133  and  _134
REMARK   56  A    between atoms: _133  and  _136
REMARK   57  A    between atoms: _136  and  _137
REMARK   58  A    between atoms: _140  and  _142
REMARK   59  A    between atoms: _142  and  _143
REMARK   60  A    between atoms: _142  and  _145
REMARK   61  A    between atoms: _145  and  _146
REMARK   62  A    between atoms: _152  and  _154
REMARK   63  A    between atoms: _154  and  _155
REMARK   64  A    between atoms: _154  and  _157
REMARK   65  A    between atoms: _157  and  _158
REMARK   66  A    between atoms: _163  and  _165
REMARK   67  A    between atoms: _165  and  _166
REMARK   68  A    between atoms: _165  and  _168
REMARK   69  A    between atoms: _168  and  _169
REMARK   70  A    between atoms: _169  and  _170
REMARK   71  A    between atoms: _175  and  _177
REMARK   72  A    between atoms: _177  and  _178
REMARK   73  A    between atoms: _177  and  _180
REMARK   74  A    between atoms: _180  and  _181
REMARK   75  A    between atoms: _186  and  _187
REMARK   76  A    between atoms: _189  and  _191
REMARK   77  A    between atoms: _191  and  _192
REMARK   78  A    between atoms: _191  and  _194
REMARK   79  A    between atoms: _194  and  _195
REMARK   80  A    between atoms: _200  and  _202
REMARK   81  A    between atoms: _202  and  _203
REMARK   82  A    between atoms: _202  and  _205
REMARK   83  A    between atoms: _205  and  _206
REMARK   84  A    between atoms: _212  and  _214
REMARK   85  A    between atoms: _214  and  _215
REMARK   86  A    between atoms: _217  and  _219
REMARK   87  A    between atoms: _219  and  _220
REMARK   88  A    between atoms: _219  and  _222
REMARK   89  A    between atoms: _225  and  _227
REMARK   90  A    between atoms: _227  and  _228
REMARK   91  A    between atoms: _227  and  _230
REMARK   92  A    between atoms: _230  and  _231
REMARK   93  A    between atoms: _234  and  _236
REMARK   94  A    between atoms: _236  and  _237
REMARK   95  A    between atoms: _236  and  _239
REMARK   96  A    between atoms: _242  and  _244
REMARK   97  A    between atoms: _244  and  _245
REMARK   98  A    between atoms: _244  and  _247
REMARK   99  A    between atoms: _250  and  _252
REMARK  100  A    between atoms: _252  and  _253
REMARK  101  A    between atoms: _252  and  _255
REMARK  102  A    between atoms: _255  and  _256
REMARK  103  A    between atoms: _259  and  _261
REMARK  104  A    between atoms: _261  and  _262
REMARK  105  A    between atoms: _261  and  _264
REMARK  106  A    between atoms: _264  and  _265
REMARK  107  A    between atoms: _268  and  _270
REMARK  108  A    between atoms: _270  and  _271
REMARK  109  A    between atoms: _270  and  _273
REMARK  110  A    between atoms: _276  and  _278
REMARK  111  A    between atoms: _278  and  _279
REMARK  112  A    between atoms: _278  and  _281
REMARK  113  A    between atoms: _281  and  _282
REMARK  114  A    between atoms: _288  and  _290
REMARK  115  A    between atoms: _290  and  _291
REMARK  116  A    between atoms: _290  and  _293
REMARK  117  A    between atoms: _293  and  _294
REMARK  118  A    between atoms: _300  and  _302
REMARK  119  A    between atoms: _302  and  _303
REMARK  120  A    between atoms: _305  and  _307
REMARK  121  A    between atoms: _307  and  _308
REMARK  122  A    between atoms: _307  and  _310
REMARK  123  A    between atoms: _310  and  _311
REMARK  124  A    between atoms: _311  and  _312
REMARK  125  A    between atoms: _315  and  _317
REMARK  126  A    between atoms: _317  and  _318
REMARK  127  A    between atoms: _317  and  _320
REMARK  128  A    between atoms: _320  and  _321
REMARK  129  A    between atoms: _321  and  _322
REMARK  130  A    between atoms: _322  and  _323
REMARK  131  A    between atoms: _323  and  _324
REMARK  132  A    between atoms: _328  and  _330
REMARK  133  A    between atoms: _330  and  _331
REMARK  134  A    between atoms: _330  and  _333
REMARK  135  A    between atoms: _333  and  _334
REMARK  136  A    between atoms: _337  and  _339
REMARK  137  A    between atoms: _339  and  _340
REMARK  138  A    between atoms: _339  and  _342
REMARK  139  A    between atoms: _342  and  _343
REMARK  140  A    between atoms: _343  and  _344
REMARK  141  A    between atoms: _349  and  _351
REMARK  142  A    between atoms: _351  and  _352
REMARK  143  A    between atoms: _351  and  _354
REMARK  144  A    between atoms: _354  and  _355
REMARK  145  A    between atoms: _358  and  _360
REMARK  146  A    between atoms: _360  and  _361
REMARK  147  A    between atoms: _363  and  _365
REMARK  148  A    between atoms: _365  and  _366
REMARK  149  A    between atoms: _365  and  _368
REMARK  150  A    between atoms: _372  and  _373
REMARK  151  A    between atoms: _378  and  _380
REMARK  152  A    between atoms: _380  and  _381
REMARK  153  A    between atoms: _380  and  _383
REMARK  154  A    between atoms: _383  and  _384
REMARK  155  A    between atoms: _387  and  _389
REMARK  156  A    between atoms: _389  and  _390
REMARK  157  A    between atoms: _389  and  _392
REMARK  158  A    between atoms: _395  and  _397
REMARK  159  A    between atoms: _397  and  _398
REMARK  160  A    between atoms: _397  and  _400
REMARK  161  A    between atoms: _400  and  _401
REMARK  162  A    between atoms: _401  and  _402
REMARK  163  A    between atoms: _402  and  _403
REMARK  164  A    between atoms: _412  and  _414
REMARK  165  A    between atoms: _414  and  _415
REMARK  166  A    between atoms: _414  and  _417
REMARK  167  A    between atoms: _417  and  _418
REMARK  168  A    between atoms: _421  and  _423
REMARK  169  A    between atoms: _423  and  _424
REMARK  170  A    between atoms: _427  and  _429
REMARK  171  A    between atoms: _429  and  _430
REMARK  172  A    between atoms: _429  and  _432
REMARK  173  A    between atoms: _432  and  _433
REMARK  174  A    between atoms: _433  and  _434
REMARK  175  A    between atoms: _436  and  _438
REMARK  176  A    between atoms: _438  and  _439
REMARK  177  A    between atoms: _438  and  _441
REMARK  178  A    between atoms: _441  and  _442
REMARK  179  A    between atoms: _444  and  _446
REMARK  180  A    between atoms: _446  and  _447
REMARK  181  A    between atoms: _446  and  _449
REMARK  182  A    between atoms: _449  and  _450
REMARK  183  A    between atoms: _452  and  _454
REMARK  184  A    between atoms: _454  and  _455
REMARK  185  A    between atoms: _454  and  _457
REMARK  186  A    between atoms: _457  and  _458
REMARK  187  A    between atoms: _458  and  _459
REMARK  188  A    between atoms: _459  and  _460
REMARK  189  A    between atoms: _469  and  _471
REMARK  190  A    between atoms: _471  and  _472
REMARK  191  A    between atoms: _471  and  _474
REMARK  192  A    between atoms: _474  and  _475
REMARK  193  A    between atoms: _480  and  _482
REMARK  194  A    between atoms: _482  and  _483
REMARK  195  A    between atoms: _482  and  _485
REMARK  196  A    between atoms: _485  and  _486
REMARK  197  A    between atoms: _486  and  _487
REMARK  198  A    between atoms: _487  and  _488
REMARK  199  A    between atoms: _497  and  _499
REMARK  200  A    between atoms: _499  and  _500
REMARK  201  A    between atoms: _499  and  _502
REMARK  202  A    between atoms: _502  and  _503
REMARK  203  A    between atoms: _503  and  _504
REMARK  204  A    between atoms: _504  and  _505
REMARK  205  A    between atoms: _514  and  _516
REMARK  206  A    between atoms: _516  and  _517
REMARK  207  A    between atoms: _516  and  _519
REMARK  208  A    between atoms: _519  and  _520
REMARK  209  A    between atoms: _523  and  _525
REMARK  210  A    between atoms: _525  and  _526
REMARK  211  A    between atoms: _525  and  _528
REMARK  212  A    between atoms: _528  and  _529
REMARK                            x       y       z     vdW  Elec       q    Type
REMARK                         _______ _______ _______ _____ _____    ______ ____
ROOT
ATOM      1  O   HOH     1      21.756   7.191   0.762  0.00  0.00    +0.000 OA
ENDROOT
TORSDOF 0
REMARK  Name = ../refined-set-2016/3ivc/3ivc_pocket.pdb
REMARK  212 active torsions:
REMARK  status: ('A' for Active; 'I' for Inactive)
REMARK    1  A    between atoms: _1  and  _3
REMARK    2  A    between atoms: _3  and  _4
REMARK    3  A    between atoms: _3  and  _6
REMARK    4  A    between atoms: _10  and  _11
REMARK    5  A    between atoms: _16  and  _18
REMARK    6  A    between atoms: _18  and  _19
REMARK    7  A    between atoms: _18  and  _21
REMARK    8  A    between atoms: _21  and  _22
REMARK    9  A    between atoms: _25  and  _27
REMARK   10  A    between atoms: _27  and  _28
REMARK   11  A    between atoms: _27  and  _30
REMARK   12  A    between atoms: _30  and  _31
REMARK   13  A    between atoms: _31  and  _32
REMARK   14  A    between atoms: _34  and  _36
REMARK   15  A    between atoms: _36  and  _37
REMARK   16  A    between atoms: _39  and  _41
REMARK   17  A    between atoms: _41  and  _42
REMARK   18  A    between atoms: _45  and  _47
REMARK   19  A    between atoms: _47  and  _48
REMARK   20  A    between atoms: _47  and  _50
REMARK   21  A    between atoms: _50  and  _51
REMARK   22  A    between atoms: _54  and  _56
REMARK   23  A    between atoms: _56  and  _57
REMARK   24  A    between atoms: _56  and  _59
REMARK   25  A    between atoms: _59  and  _60
REMARK   26  A    between atoms: _65  and  _67
REMARK   27  A    between atoms: _67  and  _68
REMARK   28  A    between atoms: _67  and  _70
REMARK   29  A    between atoms: _70  and  _71
REMARK   30  A    between atoms: _71  and  _72
REMARK   31  A    between atoms: _75  and  _77
REMARK   32  A    between atoms: _77  and  _78
REMARK   33  A    between atoms: _80  and  _82
REMARK   34  A    between atoms: _82  and  _83
REMARK   35  A    between atoms: _82  and  _85
REMARK   36  A    between atoms: _85  and  _86
REMARK   37  A    between atoms: _91  and  _93
REMARK   38  A    between atoms: _93  and  _94
REMARK   39  A    between atoms: _93  and  _96
REMARK   40  A    between atoms: _96  and  _97
REMARK   41  A    between atoms: _100  and  _102
REMARK   42  A    between atoms: _102  and  _103
REMARK   43  A    between atoms: _106  and  _108
REMARK   44  A    between atoms: _108  and  _109
REMARK   45  A    between atoms: _108  and  _111
REMARK   46  A    between atoms: _111  and  _112
REMARK   47  A    between atoms: _115  and  _117
REMARK   48  A    between atoms: _117  and  _118
REMARK   49  A    between atoms: _117  and  _120
REMARK   50  A    between atoms: _123  and  _125
REMARK   51  A    between atoms: _125  and  _126
REMARK   52  A    between atoms: _125  and  _128
REMARK   53  A    between atoms: _128  and  _129
REMARK   54  A    between atoms: _131  and  _133
REMARK   55  A    between atoms: _133  and  _134
REMARK   56  A    between atoms: _133  and  _136
REMARK   57  A    between atoms: _136  and  _137
REMARK   58  A    between atoms: _140  and  _142
REMARK   59  A    between atoms: _142  and  _143
REMARK   60  A    between atoms: _142  and  _145
REMARK   61  A    between atoms: _145  and  _146
REMARK   62  A    between atoms: _152  and  _154
REMARK   63  A    between atoms: _154  and  _155
REMARK   64  A    between atoms: _154  and  _157
REMARK   65  A    between atoms: _157  and  _158
REMARK   66  A    between atoms: _163  and  _165
REMARK   67  A    between atoms: _165  and  _166
REMARK   68  A    between atoms: _165  and  _168
REMARK   69  A    between atoms: _168  and  _169
REMARK   70  A    between atoms: _169  and  _170
REMARK   71  A    between atoms: _175  and  _177
REMARK   72  A    between atoms: _177  and  _178
REMARK   73  A    between atoms: _177  and  _180
REMARK   74  A    between atoms: _180  and  _181
REMARK   75  A    between atoms: _186  and  _187
REMARK   76  A    between atoms: _189  and  _191
REMARK   77  A    between atoms: _191  and  _192
REMARK   78  A    between atoms: _191  and  _194
REMARK   79  A    between atoms: _194  and  _195
REMARK   80  A    between atoms: _200  and  _202
REMARK   81  A    between atoms: _202  and  _203
REMARK   82  A    between atoms: _202  and  _205
REMARK   83  A    between atoms: _205  and  _206
REMARK   84  A    between atoms: _212  and  _214
REMARK   85  A    between atoms: _214  and  _215
REMARK   86  A    between atoms: _217  and  _219
REMARK   87  A    between atoms: _219  and  _220
REMARK   88  A    between atoms: _219  and  _222
REMARK   89  A    between atoms: _225  and  _227
REMARK   90  A    between atoms: _227  and  _228
REMARK   91  A    between atoms: _227  and  _230
REMARK   92  A    between atoms: _230  and  _231
REMARK   93  A    between atoms: _234  and  _236
REMARK   94  A    between atoms: _236  and  _237
REMARK   95  A    between atoms: _236  and  _239
REMARK   96  A    between atoms: _242  and  _244
REMARK   97  A    between atoms: _244  and  _245
REMARK   98  A    between atoms: _244  and  _247
REMARK   99  A    between atoms: _250  and  _252
REMARK  100  A    between atoms: _252  and  _253
REMARK  101  A    between atoms: _252  and  _255
REMARK  102  A    between atoms: _255  and  _256
REMARK  103  A    between atoms: _259  and  _261
REMARK  104  A    between atoms: _261  and  _262
REMARK  105  A    between atoms: _261  and  _264
REMARK  106  A    between atoms: _264  and  _265
REMARK  107  A    between atoms: _268  and  _270
REMARK  108  A    between atoms: _270  and  _271
REMARK  109  A    between atoms: _270  and  _273
REMARK  110  A    between atoms: _276  and  _278
REMARK  111  A    between atoms: _278  and  _279
REMARK  112  A    between atoms: _278  and  _281
REMARK  113  A    between atoms: _281  and  _282
REMARK  114  A    between atoms: _288  and  _290
REMARK  115  A    between atoms: _290  and  _291
REMARK  116  A    between atoms: _290  and  _293
REMARK  117  A    between atoms: _293  and  _294
REMARK  118  A    between atoms: _300  and  _302
REMARK  119  A    between atoms: _302  and  _303
REMARK  120  A    between atoms: _305  and  _307
REMARK  121  A    between atoms: _307  and  _308
REMARK  122  A    between atoms: _307  and  _310
REMARK  123  A    between atoms: _310  and  _311
REMARK  124  A    between atoms: _311  and  _312
REMARK  125  A    between atoms: _315  and  _317
REMARK  126  A    between atoms: _317  and  _318
REMARK  127  A    between atoms: _317  and  _320
REMARK  128  A    between atoms: _320  and  _321
REMARK  129  A    between atoms: _321  and  _322
REMARK  130  A    between atoms: _322  and  _323
REMARK  131  A    between atoms: _323  and  _324
REMARK  132  A    between atoms: _328  and  _330
REMARK  133  A    between atoms: _330  and  _331
REMARK  134  A    between atoms: _330  and  _333
REMARK  135  A    between atoms: _333  and  _334
REMARK  136  A    between atoms: _337  and  _339
REMARK  137  A    between atoms: _339  and  _340
REMARK  138  A    between atoms: _339  and  _342
REMARK  139  A    between atoms: _342  and  _343
REMARK  140  A    between atoms: _343  and  _344
REMARK  141  A    between atoms: _349  and  _351
REMARK  142  A    between atoms: _351  and  _352
REMARK  143  A    between atoms: _351  and  _354
REMARK  144  A    between atoms: _354  and  _355
REMARK  145  A    between atoms: _358  and  _360
REMARK  146  A    between atoms: _360  and  _361
REMARK  147  A    between atoms: _363  and  _365
REMARK  148  A    between atoms: _365  and  _366
REMARK  149  A    between atoms: _365  and  _368
REMARK  150  A    between atoms: _372  and  _373
REMARK  151  A    between atoms: _378  and  _380
REMARK  152  A    between atoms: _380  and  _381
REMARK  153  A    between atoms: _380  and  _383
REMARK  154  A    between atoms: _383  and  _384
REMARK  155  A    between atoms: _387  and  _389
REMARK  156  A    between atoms: _389  and  _390
REMARK  157  A    between atoms: _389  and  _392
REMARK  158  A    between atoms: _395  and  _397
REMARK  159  A    between atoms: _397  and  _398
REMARK  160  A    between atoms: _397  and  _400
REMARK  161  A    between atoms: _400  and  _401
REMARK  162  A    between atoms: _401  and  _402
REMARK  163  A    between atoms: _402  and  _403
REMARK  164  A    between atoms: _412  and  _414
REMARK  165  A    between atoms: _414  and  _415
REMARK  166  A    between atoms: _414  and  _417
REMARK  167  A    between atoms: _417  and  _418
REMARK  168  A    between atoms: _421  and  _423
REMARK  169  A    between atoms: _423  and  _424
REMARK  170  A    between atoms: _427  and  _429
REMARK  171  A    between atoms: _429  and  _430
REMARK  172  A    between atoms: _429  and  _432
REMARK  173  A    between atoms: _432  and  _433
REMARK  174  A    between atoms: _433  and  _434
REMARK  175  A    between atoms: _436  and  _438
REMARK  176  A    between atoms: _438  and  _439
REMARK  177  A    between atoms: _438  and  _441
REMARK  178  A    between atoms: _441  and  _442
REMARK  179  A    between atoms: _444  and  _446
REMARK  180  A    between atoms: _446  and  _447
REMARK  181  A    between atoms: _446  and  _449
REMARK  182  A    between atoms: _449  and  _450
REMARK  183  A    between atoms: _452  and  _454
REMARK  184  A    between atoms: _454  and  _455
REMARK  185  A    between atoms: _454  and  _457
REMARK  186  A    between atoms: _457  and  _458
REMARK  187  A    between atoms: _458  and  _459
REMARK  188  A    between atoms: _459  and  _460
REMARK  189  A    between atoms: _469  and  _471
REMARK  190  A    between atoms: _471  and  _472
REMARK  191  A    between atoms: _471  and  _474
REMARK  192  A    between atoms: _474  and  _475
REMARK  193  A    between atoms: _480  and  _482
REMARK  194  A    between atoms: _482  and  _483
REMARK  195  A    between atoms: _482  and  _485
REMARK  196  A    between atoms: _485  and  _486
REMARK  197  A    between atoms: _486  and  _487
REMARK  198  A    between atoms: _487  and  _488
REMARK  199  A    between atoms: _497  and  _499
REMARK  200  A    between atoms: _499  and  _500
REMARK  201  A    between atoms: _499  and  _502
REMARK  202  A    between atoms: _502  and  _503
REMARK  203  A    between atoms: _503  and  _504
REMARK  204  A    between atoms: _504  and  _505
REMARK  205  A    between atoms: _514  and  _516
REMARK  206  A    between atoms: _516  and  _517
REMARK  207  A    between atoms: _516  and  _519
REMARK  208  A    between atoms: _519  and  _520
REMARK  209  A    between atoms: _523  and  _525
REMARK  210  A    between atoms: _525  and  _526
REMARK  211  A    between atoms: _525  and  _528
REMARK  212  A    between atoms: _528  and  _529
REMARK                            x       y       z     vdW  Elec       q    Type
REMARK                         _______ _______ _______ _____ _____    ______ ____
ROOT
ATOM      1  O   HOH     1      12.097   8.323   1.652  0.00  0.00    +0.000 OA
ENDROOT
TORSDOF 0
REMARK  Name = ../refined-set-2016/3ivc/3ivc_pocket.pdb
REMARK  212 active torsions:
REMARK  status: ('A' for Active; 'I' for Inactive)
REMARK    1  A    between atoms: _1  and  _3
REMARK    2  A    between atoms: _3  and  _4
REMARK    3  A    between atoms: _3  and  _6
REMARK    4  A    between atoms: _10  and  _11
REMARK    5  A    between atoms: _16  and  _18
REMARK    6  A    between atoms: _18  and  _19
REMARK    7  A    between atoms: _18  and  _21
REMARK    8  A    between atoms: _21  and  _22
REMARK    9  A    between atoms: _25  and  _27
REMARK   10  A    between atoms: _27  and  _28
REMARK   11  A    between atoms: _27  and  _30
REMARK   12  A    between atoms: _30  and  _31
REMARK   13  A    between atoms: _31  and  _32
REMARK   14  A    between atoms: _34  and  _36
REMARK   15  A    between atoms: _36  and  _37
REMARK   16  A    between atoms: _39  and  _41
REMARK   17  A    between atoms: _41  and  _42
REMARK   18  A    between atoms: _45  and  _47
REMARK   19  A    between atoms: _47  and  _48
REMARK   20  A    between atoms: _47  and  _50
REMARK   21  A    between atoms: _50  and  _51
REMARK   22  A    between atoms: _54  and  _56
REMARK   23  A    between atoms: _56  and  _57
REMARK   24  A    between atoms: _56  and  _59
REMARK   25  A    between atoms: _59  and  _60
REMARK   26  A    between atoms: _65  and  _67
REMARK   27  A    between atoms: _67  and  _68
REMARK   28  A    between atoms: _67  and  _70
REMARK   29  A    between atoms: _70  and  _71
REMARK   30  A    between atoms: _71  and  _72
REMARK   31  A    between atoms: _75  and  _77
REMARK   32  A    between atoms: _77  and  _78
REMARK   33  A    between atoms: _80  and  _82
REMARK   34  A    between atoms: _82  and  _83
REMARK   35  A    between atoms: _82  and  _85
REMARK   36  A    between atoms: _85  and  _86
REMARK   37  A    between atoms: _91  and  _93
REMARK   38  A    between atoms: _93  and  _94
REMARK   39  A    between atoms: _93  and  _96
REMARK   40  A    between atoms: _96  and  _97
REMARK   41  A    between atoms: _100  and  _102
REMARK   42  A    between atoms: _102  and  _103
REMARK   43  A    between atoms: _106  and  _108
REMARK   44  A    between atoms: _108  and  _109
REMARK   45  A    between atoms: _108  and  _111
REMARK   46  A    between atoms: _111  and  _112
REMARK   47  A    between atoms: _115  and  _117
REMARK   48  A    between atoms: _117  and  _118
REMARK   49  A    between atoms: _117  and  _120
REMARK   50  A    between atoms: _123  and  _125
REMARK   51  A    between atoms: _125  and  _126
REMARK   52  A    between atoms: _125  and  _128
REMARK   53  A    between atoms: _128  and  _129
REMARK   54  A    between atoms: _131  and  _133
REMARK   55  A    between atoms: _133  and  _134
REMARK   56  A    between atoms: _133  and  _136
REMARK   57  A    between atoms: _136  and  _137
REMARK   58  A    between atoms: _140  and  _142
REMARK   59  A    between atoms: _142  and  _143
REMARK   60  A    between atoms: _142  and  _145
REMARK   61  A    between atoms: _145  and  _146
REMARK   62  A    between atoms: _152  and  _154
REMARK   63  A    between atoms: _154  and  _155
REMARK   64  A    between atoms: _154  and  _157
REMARK   65  A    between atoms: _157  and  _158
REMARK   66  A    between atoms: _163  and  _165
REMARK   67  A    between atoms: _165  and  _166
REMARK   68  A    between atoms: _165  and  _168
REMARK   69  A    between atoms: _168  and  _169
REMARK   70  A    between atoms: _169  and  _170
REMARK   71  A    between atoms: _175  and  _177
REMARK   72  A    between atoms: _177  and  _178
REMARK   73  A    between atoms: _177  and  _180
REMARK   74  A    between atoms: _180  and  _181
REMARK   75  A    between atoms: _186  and  _187
REMARK   76  A    between atoms: _189  and  _191
REMARK   77  A    between atoms: _191  and  _192
REMARK   78  A    between atoms: _191  and  _194
REMARK   79  A    between atoms: _194  and  _195
REMARK   80  A    between atoms: _200  and  _202
REMARK   81  A    between atoms: _202  and  _203
REMARK   82  A    between atoms: _202  and  _205
REMARK   83  A    between atoms: _205  and  _206
REMARK   84  A    between atoms: _212  and  _214
REMARK   85  A    between atoms: _214  and  _215
REMARK   86  A    between atoms: _217  and  _219
REMARK   87  A    between atoms: _219  and  _220
REMARK   88  A    between atoms: _219  and  _222
REMARK   89  A    between atoms: _225  and  _227
REMARK   90  A    between atoms: _227  and  _228
REMARK   91  A    between atoms: _227  and  _230
REMARK   92  A    between atoms: _230  and  _231
REMARK   93  A    between atoms: _234  and  _236
REMARK   94  A    between atoms: _236  and  _237
REMARK   95  A    between atoms: _236  and  _239
REMARK   96  A    between atoms: _242  and  _244
REMARK   97  A    between atoms: _244  and  _245
REMARK   98  A    between atoms: _244  and  _247
REMARK   99  A    between atoms: _250  and  _252
REMARK  100  A    between atoms: _252  and  _253
REMARK  101  A    between atoms: _252  and  _255
REMARK  102  A    between atoms: _255  and  _256
REMARK  103  A    between atoms: _259  and  _261
REMARK  104  A    between atoms: _261  and  _262
REMARK  105  A    between atoms: _261  and  _264
REMARK  106  A    between atoms: _264  and  _265
REMARK  107  A    between atoms: _268  and  _270
REMARK  108  A    between atoms: _270  and  _271
REMARK  109  A    between atoms: _270  and  _273
REMARK  110  A    between atoms: _276  and  _278
REMARK  111  A    between atoms: _278  and  _279
REMARK  112  A    between atoms: _278  and  _281
REMARK  113  A    between atoms: _281  and  _282
REMARK  114  A    between atoms: _288  and  _290
REMARK  115  A    between atoms: _290  and  _291
REMARK  116  A    between atoms: _290  and  _293
REMARK  117  A    between atoms: _293  and  _294
REMARK  118  A    between atoms: _300  and  _302
REMARK  119  A    between atoms: _302  and  _303
REMARK  120  A    between atoms: _305  and  _307
REMARK  121  A    between atoms: _307  and  _308
REMARK  122  A    between atoms: _307  and  _310
REMARK  123  A    between atoms: _310  and  _311
REMARK  124  A    between atoms: _311  and  _312
REMARK  125  A    between atoms: _315  and  _317
REMARK  126  A    between atoms: _317  and  _318
REMARK  127  A    between atoms: _317  and  _320
REMARK  128  A    between atoms: _320  and  _321
REMARK  129  A    between atoms: _321  and  _322
REMARK  130  A    between atoms: _322  and  _323
REMARK  131  A    between atoms: _323  and  _324
REMARK  132  A    between atoms: _328  and  _330
REMARK  133  A    between atoms: _330  and  _331
REMARK  134  A    between atoms: _330  and  _333
REMARK  135  A    between atoms: _333  and  _334
REMARK  136  A    between atoms: _337  and  _339
REMARK  137  A    between atoms: _339  and  _340
REMARK  138  A    between atoms: _339  and  _342
REMARK  139  A    between atoms: _342  and  _343
REMARK  140  A    between atoms: _343  and  _344
REMARK  141  A    between atoms: _349  and  _351
REMARK  142  A    between atoms: _351  and  _352
REMARK  143  A    between atoms: _351  and  _354
REMARK  144  A    between atoms: _354  and  _355
REMARK  145  A    between atoms: _358  and  _360
REMARK  146  A    between atoms: _360  and  _361
REMARK  147  A    between atoms: _363  and  _365
REMARK  148  A    between atoms: _365  and  _366
REMARK  149  A    between atoms: _365  and  _368
REMARK  150  A    between atoms: _372  and  _373
REMARK  151  A    between atoms: _378  and  _380
REMARK  152  A    between atoms: _380  and  _381
REMARK  153  A    between atoms: _380  and  _383
REMARK  154  A    between atoms: _383  and  _384
REMARK  155  A    between atoms: _387  and  _389
REMARK  156  A    between atoms: _389  and  _390
REMARK  157  A    between atoms: _389  and  _392
REMARK  158  A    between atoms: _395  and  _397
REMARK  159  A    between atoms: _397  and  _398
REMARK  160  A    between atoms: _397  and  _400
REMARK  161  A    between atoms: _400  and  _401
REMARK  162  A    between atoms: _401  and  _402
REMARK  163  A    between atoms: _402  and  _403
REMARK  164  A    between atoms: _412  and  _414
REMARK  165  A    between atoms: _414  and  _415
REMARK  166  A    between atoms: _414  and  _417
REMARK  167  A    between atoms: _417  and  _418
REMARK  168  A    between atoms: _421  and  _423
REMARK  169  A    between atoms: _423  and  _424
REMARK  170  A    between atoms: _427  and  _429
REMARK  171  A    between atoms: _429  and  _430
REMARK  172  A    between atoms: _429  and  _432
REMARK  173  A    between atoms: _432  and  _433
REMARK  174  A    between atoms: _433  and  _434
REMARK  175  A    between atoms: _436  and  _438
REMARK  176  A    between atoms: _438  and  _439
REMARK  177  A    between atoms: _438  and  _441
REMARK  178  A    between atoms: _441  and  _442
REMARK  179  A    between atoms: _444  and  _446
REMARK  180  A    between atoms: _446  and  _447
REMARK  181  A    between atoms: _446  and  _449
REMARK  182  A    between atoms: _449  and  _450
REMARK  183  A    between atoms: _452  and  _454
REMARK  184  A    between atoms: _454  and  _455
REMARK  185  A    between atoms: _454  and  _457
REMARK  186  A    between atoms: _457  and  _458
REMARK  187  A    between atoms: _458  and  _459
REMARK  188  A    between atoms: _459  and  _460
REMARK  189  A    between atoms: _469  and  _471
REMARK  190  A    between atoms: _471  and  _472
REMARK  191  A    between atoms: _471  and  _474
REMARK  192  A    between atoms: _474  and  _475
REMARK  193  A    between atoms: _480  and  _482
REMARK  194  A    between atoms: _482  and  _483
REMARK  195  A    between atoms: _482  and  _485
REMARK  196  A    between atoms: _485  and  _486
REMARK  197  A    between atoms: _486  and  _487
REMARK  198  A    between atoms: _487  and  _488
REMARK  199  A    between atoms: _497  and  _499
REMARK  200  A    between atoms: _499  and  _500
REMARK  201  A    between atoms: _499  and  _502
REMARK  202  A    between atoms: _502  and  _503
REMARK  203  A    between atoms: _503  and  _504
REMARK  204  A    between atoms: _504  and  _505
REMARK  205  A    between atoms: _514  and  _516
REMARK  206  A    between atoms: _516  and  _517
REMARK  207  A    between atoms: _516  and  _519
REMARK  208  A    between atoms: _519  and  _520
REMARK  209  A    between atoms: _523  and  _525
REMARK  210  A    between atoms: _525  and  _526
REMARK  211  A    between atoms: _525  and  _528
REMARK  212  A    between atoms: _528  and  _529
REMARK                            x       y       z     vdW  Elec       q    Type
REMARK                         _______ _______ _______ _____ _____    ______ ____
ROOT
ATOM      1  O   HOH     1       8.598   8.090  -9.421  0.00  0.00    +0.000 OA
ENDROOT
TORSDOF 0
REMARK  Name = ../refined-set-2016/3ivc/3ivc_pocket.pdb
REMARK  212 active torsions:
REMARK  status: ('A' for Active; 'I' for Inactive)
REMARK    1  A    between atoms: _1  and  _3
REMARK    2  A    between atoms: _3  and  _4
REMARK    3  A    between atoms: _3  and  _6
REMARK    4  A    between atoms: _10  and  _11
REMARK    5  A    between atoms: _16  and  _18
REMARK    6  A    between atoms: _18  and  _19
REMARK    7  A    between atoms: _18  and  _21
REMARK    8  A    between atoms: _21  and  _22
REMARK    9  A    between atoms: _25  and  _27
REMARK   10  A    between atoms: _27  and  _28
REMARK   11  A    between atoms: _27  and  _30
REMARK   12  A    between atoms: _30  and  _31
REMARK   13  A    between atoms: _31  and  _32
REMARK   14  A    between atoms: _34  and  _36
REMARK   15  A    between atoms: _36  and  _37
REMARK   16  A    between atoms: _39  and  _41
REMARK   17  A    between atoms: _41  and  _42
REMARK   18  A    between atoms: _45  and  _47
REMARK   19  A    between atoms: _47  and  _48
REMARK   20  A    between atoms: _47  and  _50
REMARK   21  A    between atoms: _50  and  _51
REMARK   22  A    between atoms: _54  and  _56
REMARK   23  A    between atoms: _56  and  _57
REMARK   24  A    between atoms: _56  and  _59
REMARK   25  A    between atoms: _59  and  _60
REMARK   26  A    between atoms: _65  and  _67
REMARK   27  A    between atoms: _67  and  _68
REMARK   28  A    between atoms: _67  and  _70
REMARK   29  A    between atoms: _70  and  _71
REMARK   30  A    between atoms: _71  and  _72
REMARK   31  A    between atoms: _75  and  _77
REMARK   32  A    between atoms: _77  and  _78
REMARK   33  A    between atoms: _80  and  _82
REMARK   34  A    between atoms: _82  and  _83
REMARK   35  A    between atoms: _82  and  _85
REMARK   36  A    between atoms: _85  and  _86
REMARK   37  A    between atoms: _91  and  _93
REMARK   38  A    between atoms: _93  and  _94
REMARK   39  A    between atoms: _93  and  _96
REMARK   40  A    between atoms: _96  and  _97
REMARK   41  A    between atoms: _100  and  _102
REMARK   42  A    between atoms: _102  and  _103
REMARK   43  A    between atoms: _106  and  _108
REMARK   44  A    between atoms: _108  and  _109
REMARK   45  A    between atoms: _108  and  _111
REMARK   46  A    between atoms: _111  and  _112
REMARK   47  A    between atoms: _115  and  _117
REMARK   48  A    between atoms: _117  and  _118
REMARK   49  A    between atoms: _117  and  _120
REMARK   50  A    between atoms: _123  and  _125
REMARK   51  A    between atoms: _125  and  _126
REMARK   52  A    between atoms: _125  and  _128
REMARK   53  A    between atoms: _128  and  _129
REMARK   54  A    between atoms: _131  and  _133
REMARK   55  A    between atoms: _133  and  _134
REMARK   56  A    between atoms: _133  and  _136
REMARK   57  A    between atoms: _136  and  _137
REMARK   58  A    between atoms: _140  and  _142
REMARK   59  A    between atoms: _142  and  _143
REMARK   60  A    between atoms: _142  and  _145
REMARK   61  A    between atoms: _145  and  _146
REMARK   62  A    between atoms: _152  and  _154
REMARK   63  A    between atoms: _154  and  _155
REMARK   64  A    between atoms: _154  and  _157
REMARK   65  A    between atoms: _157  and  _158
REMARK   66  A    between atoms: _163  and  _165
REMARK   67  A    between atoms: _165  and  _166
REMARK   68  A    between atoms: _165  and  _168
REMARK   69  A    between atoms: _168  and  _169
REMARK   70  A    between atoms: _169  and  _170
REMARK   71  A    between atoms: _175  and  _177
REMARK   72  A    between atoms: _177  and  _178
REMARK   73  A    between atoms: _177  and  _180
REMARK   74  A    between atoms: _180  and  _181
REMARK   75  A    between atoms: _186  and  _187
REMARK   76  A    between atoms: _189  and  _191
REMARK   77  A    between atoms: _191  and  _192
REMARK   78  A    between atoms: _191  and  _194
REMARK   79  A    between atoms: _194  and  _195
REMARK   80  A    between atoms: _200  and  _202
REMARK   81  A    between atoms: _202  and  _203
REMARK   82  A    between atoms: _202  and  _205
REMARK   83  A    between atoms: _205  and  _206
REMARK   84  A    between atoms: _212  and  _214
REMARK   85  A    between atoms: _214  and  _215
REMARK   86  A    between atoms: _217  and  _219
REMARK   87  A    between atoms: _219  and  _220
REMARK   88  A    between atoms: _219  and  _222
REMARK   89  A    between atoms: _225  and  _227
REMARK   90  A    between atoms: _227  and  _228
REMARK   91  A    between atoms: _227  and  _230
REMARK   92  A    between atoms: _230  and  _231
REMARK   93  A    between atoms: _234  and  _236
REMARK   94  A    between atoms: _236  and  _237
REMARK   95  A    between atoms: _236  and  _239
REMARK   96  A    between atoms: _242  and  _244
REMARK   97  A    between atoms: _244  and  _245
REMARK   98  A    between atoms: _244  and  _247
REMARK   99  A    between atoms: _250  and  _252
REMARK  100  A    between atoms: _252  and  _253
REMARK  101  A    between atoms: _252  and  _255
REMARK  102  A    between atoms: _255  and  _256
REMARK  103  A    between atoms: _259  and  _261
REMARK  104  A    between atoms: _261  and  _262
REMARK  105  A    between atoms: _261  and  _264
REMARK  106  A    between atoms: _264  and  _265
REMARK  107  A    between atoms: _268  and  _270
REMARK  108  A    between atoms: _270  and  _271
REMARK  109  A    between atoms: _270  and  _273
REMARK  110  A    between atoms: _276  and  _278
REMARK  111  A    between atoms: _278  and  _279
REMARK  112  A    between atoms: _278  and  _281
REMARK  113  A    between atoms: _281  and  _282
REMARK  114  A    between atoms: _288  and  _290
REMARK  115  A    between atoms: _290  and  _291
REMARK  116  A    between atoms: _290  and  _293
REMARK  117  A    between atoms: _293  and  _294
REMARK  118  A    between atoms: _300  and  _302
REMARK  119  A    between atoms: _302  and  _303
REMARK  120  A    between atoms: _305  and  _307
REMARK  121  A    between atoms: _307  and  _308
REMARK  122  A    between atoms: _307  and  _310
REMARK  123  A    between atoms: _310  and  _311
REMARK  124  A    between atoms: _311  and  _312
REMARK  125  A    between atoms: _315  and  _317
REMARK  126  A    between atoms: _317  and  _318
REMARK  127  A    between atoms: _317  and  _320
REMARK  128  A    between atoms: _320  and  _321
REMARK  129  A    between atoms: _321  and  _322
REMARK  130  A    between atoms: _322  and  _323
REMARK  131  A    between atoms: _323  and  _324
REMARK  132  A    between atoms: _328  and  _330
REMARK  133  A    between atoms: _330  and  _331
REMARK  134  A    between atoms: _330  and  _333
REMARK  135  A    between atoms: _333  and  _334
REMARK  136  A    between atoms: _337  and  _339
REMARK  137  A    between atoms: _339  and  _340
REMARK  138  A    between atoms: _339  and  _342
REMARK  139  A    between atoms: _342  and  _343
REMARK  140  A    between atoms: _343  and  _344
REMARK  141  A    between atoms: _349  and  _351
REMARK  142  A    between atoms: _351  and  _352
REMARK  143  A    between atoms: _351  and  _354
REMARK  144  A    between atoms: _354  and  _355
REMARK  145  A    between atoms: _358  and  _360
REMARK  146  A    between atoms: _360  and  _361
REMARK  147  A    between atoms: _363  and  _365
REMARK  148  A    between atoms: _365  and  _366
REMARK  149  A    between atoms: _365  and  _368
REMARK  150  A    between atoms: _372  and  _373
REMARK  151  A    between atoms: _378  and  _380
REMARK  152  A    between atoms: _380  and  _381
REMARK  153  A    between atoms: _380  and  _383
REMARK  154  A    between atoms: _383  and  _384
REMARK  155  A    between atoms: _387  and  _389
REMARK  156  A    between atoms: _389  and  _390
REMARK  157  A    between atoms: _389  and  _392
REMARK  158  A    between atoms: _395  and  _397
REMARK  159  A    between atoms: _397  and  _398
REMARK  160  A    between atoms: _397  and  _400
REMARK  161  A    between atoms: _400  and  _401
REMARK  162  A    between atoms: _401  and  _402
REMARK  163  A    between atoms: _402  and  _403
REMARK  164  A    between atoms: _412  and  _414
REMARK  165  A    between atoms: _414  and  _415
REMARK  166  A    between atoms: _414  and  _417
REMARK  167  A    between atoms: _417  and  _418
REMARK  168  A    between atoms: _421  and  _423
REMARK  169  A    between atoms: _423  and  _424
REMARK  170  A    between atoms: _427  and  _429
REMARK  171  A    between atoms: _429  and  _430
REMARK  172  A    between atoms: _429  and  _432
REMARK  173  A    between atoms: _432  and  _433
REMARK  174  A    between atoms: _433  and  _434
REMARK  175  A    between atoms: _436  and  _438
REMARK  176  A    between atoms: _438  and  _439
REMARK  177  A    between atoms: _438  and  _441
REMARK  178  A    between atoms: _441  and  _442
REMARK  179  A    between atoms: _444  and  _446
REMARK  180  A    between atoms: _446  and  _447
REMARK  181  A    between atoms: _446  and  _449
REMARK  182  A    between atoms: _449  and  _450
REMARK  183  A    between atoms: _452  and  _454
REMARK  184  A    between atoms: _454  and  _455
REMARK  185  A    between atoms: _454  and  _457
REMARK  186  A    between atoms: _457  and  _458
REMARK  187  A    between atoms: _458  and  _459
REMARK  188  A    between atoms: _459  and  _460
REMARK  189  A    between atoms: _469  and  _471
REMARK  190  A    between atoms: _471  and  _472
REMARK  191  A    between atoms: _471  and  _474
REMARK  192  A    between atoms: _474  and  _475
REMARK  193  A    between atoms: _480  and  _482
REMARK  194  A    between atoms: _482  and  _483
REMARK  195  A    between atoms: _482  and  _485
REMARK  196  A    between atoms: _485  and  _486
REMARK  197  A    between atoms: _486  and  _487
REMARK  198  A    between atoms: _487  and  _488
REMARK  199  A    between atoms: _497  and  _499
REMARK  200  A    between atoms: _499  and  _500
REMARK  201  A    between atoms: _499  and  _502
REMARK  202  A    between atoms: _502  and  _503
REMARK  203  A    between atoms: _503  and  _504
REMARK  204  A    between atoms: _504  and  _505
REMARK  205  A    between atoms: _514  and  _516
REMARK  206  A    between atoms: _516  and  _517
REMARK  207  A    between atoms: _516  and  _519
REMARK  208  A    between atoms: _519  and  _520
REMARK  209  A    between atoms: _523  and  _525
REMARK  210  A    between atoms: _525  and  _526
REMARK  211  A    between atoms: _525  and  _528
REMARK  212  A    between atoms: _528  and  _529
REMARK                            x       y       z     vdW  Elec       q    Type
REMARK                         _______ _______ _______ _____ _____    ______ ____
ROOT
ATOM      1  O   HOH     1      14.555   7.848   0.875  0.00  0.00    +0.000 OA
ENDROOT
TORSDOF 0
REMARK  Name = ../refined-set-2016/3ivc/3ivc_pocket.pdb
REMARK  212 active torsions:
REMARK  status: ('A' for Active; 'I' for Inactive)
REMARK    1  A    between atoms: _1  and  _3
REMARK    2  A    between atoms: _3  and  _4
REMARK    3  A    between atoms: _3  and  _6
REMARK    4  A    between atoms: _10  and  _11
REMARK    5  A    between atoms: _16  and  _18
REMARK    6  A    between atoms: _18  and  _19
REMARK    7  A    between atoms: _18  and  _21
REMARK    8  A    between atoms: _21  and  _22
REMARK    9  A    between atoms: _25  and  _27
REMARK   10  A    between atoms: _27  and  _28
REMARK   11  A    between atoms: _27  and  _30
REMARK   12  A    between atoms: _30  and  _31
REMARK   13  A    between atoms: _31  and  _32
REMARK   14  A    between atoms: _34  and  _36
REMARK   15  A    between atoms: _36  and  _37
REMARK   16  A    between atoms: _39  and  _41
REMARK   17  A    between atoms: _41  and  _42
REMARK   18  A    between atoms: _45  and  _47
REMARK   19  A    between atoms: _47  and  _48
REMARK   20  A    between atoms: _47  and  _50
REMARK   21  A    between atoms: _50  and  _51
REMARK   22  A    between atoms: _54  and  _56
REMARK   23  A    between atoms: _56  and  _57
REMARK   24  A    between atoms: _56  and  _59
REMARK   25  A    between atoms: _59  and  _60
REMARK   26  A    between atoms: _65  and  _67
REMARK   27  A    between atoms: _67  and  _68
REMARK   28  A    between atoms: _67  and  _70
REMARK   29  A    between atoms: _70  and  _71
REMARK   30  A    between atoms: _71  and  _72
REMARK   31  A    between atoms: _75  and  _77
REMARK   32  A    between atoms: _77  and  _78
REMARK   33  A    between atoms: _80  and  _82
REMARK   34  A    between atoms: _82  and  _83
REMARK   35  A    between atoms: _82  and  _85
REMARK   36  A    between atoms: _85  and  _86
REMARK   37  A    between atoms: _91  and  _93
REMARK   38  A    between atoms: _93  and  _94
REMARK   39  A    between atoms: _93  and  _96
REMARK   40  A    between atoms: _96  and  _97
REMARK   41  A    between atoms: _100  and  _102
REMARK   42  A    between atoms: _102  and  _103
REMARK   43  A    between atoms: _106  and  _108
REMARK   44  A    between atoms: _108  and  _109
REMARK   45  A    between atoms: _108  and  _111
REMARK   46  A    between atoms: _111  and  _112
REMARK   47  A    between atoms: _115  and  _117
REMARK   48  A    between atoms: _117  and  _118
REMARK   49  A    between atoms: _117  and  _120
REMARK   50  A    between atoms: _123  and  _125
REMARK   51  A    between atoms: _125  and  _126
REMARK   52  A    between atoms: _125  and  _128
REMARK   53  A    between atoms: _128  and  _129
REMARK   54  A    between atoms: _131  and  _133
REMARK   55  A    between atoms: _133  and  _134
REMARK   56  A    between atoms: _133  and  _136
REMARK   57  A    between atoms: _136  and  _137
REMARK   58  A    between atoms: _140  and  _142
REMARK   59  A    between atoms: _142  and  _143
REMARK   60  A    between atoms: _142  and  _145
REMARK   61  A    between atoms: _145  and  _146
REMARK   62  A    between atoms: _152  and  _154
REMARK   63  A    between atoms: _154  and  _155
REMARK   64  A    between atoms: _154  and  _157
REMARK   65  A    between atoms: _157  and  _158
REMARK   66  A    between atoms: _163  and  _165
REMARK   67  A    between atoms: _165  and  _166
REMARK   68  A    between atoms: _165  and  _168
REMARK   69  A    between atoms: _168  and  _169
REMARK   70  A    between atoms: _169  and  _170
REMARK   71  A    between atoms: _175  and  _177
REMARK   72  A    between atoms: _177  and  _178
REMARK   73  A    between atoms: _177  and  _180
REMARK   74  A    between atoms: _180  and  _181
REMARK   75  A    between atoms: _186  and  _187
REMARK   76  A    between atoms: _189  and  _191
REMARK   77  A    between atoms: _191  and  _192
REMARK   78  A    between atoms: _191  and  _194
REMARK   79  A    between atoms: _194  and  _195
REMARK   80  A    between atoms: _200  and  _202
REMARK   81  A    between atoms: _202  and  _203
REMARK   82  A    between atoms: _202  and  _205
REMARK   83  A    between atoms: _205  and  _206
REMARK   84  A    between atoms: _212  and  _214
REMARK   85  A    between atoms: _214  and  _215
REMARK   86  A    between atoms: _217  and  _219
REMARK   87  A    between atoms: _219  and  _220
REMARK   88  A    between atoms: _219  and  _222
REMARK   89  A    between atoms: _225  and  _227
REMARK   90  A    between atoms: _227  and  _228
REMARK   91  A    between atoms: _227  and  _230
REMARK   92  A    between atoms: _230  and  _231
REMARK   93  A    between atoms: _234  and  _236
REMARK   94  A    between atoms: _236  and  _237
REMARK   95  A    between atoms: _236  and  _239
REMARK   96  A    between atoms: _242  and  _244
REMARK   97  A    between atoms: _244  and  _245
REMARK   98  A    between atoms: _244  and  _247
REMARK   99  A    between atoms: _250  and  _252
REMARK  100  A    between atoms: _252  and  _253
REMARK  101  A    between atoms: _252  and  _255
REMARK  102  A    between atoms: _255  and  _256
REMARK  103  A    between atoms: _259  and  _261
REMARK  104  A    between atoms: _261  and  _262
REMARK  105  A    between atoms: _261  and  _264
REMARK  106  A    between atoms: _264  and  _265
REMARK  107  A    between atoms: _268  and  _270
REMARK  108  A    between atoms: _270  and  _271
REMARK  109  A    between atoms: _270  and  _273
REMARK  110  A    between atoms: _276  and  _278
REMARK  111  A    between atoms: _278  and  _279
REMARK  112  A    between atoms: _278  and  _281
REMARK  113  A    between atoms: _281  and  _282
REMARK  114  A    between atoms: _288  and  _290
REMARK  115  A    between atoms: _290  and  _291
REMARK  116  A    between atoms: _290  and  _293
REMARK  117  A    between atoms: _293  and  _294
REMARK  118  A    between atoms: _300  and  _302
REMARK  119  A    between atoms: _302  and  _303
REMARK  120  A    between atoms: _305  and  _307
REMARK  121  A    between atoms: _307  and  _308
REMARK  122  A    between atoms: _307  and  _310
REMARK  123  A    between atoms: _310  and  _311
REMARK  124  A    between atoms: _311  and  _312
REMARK  125  A    between atoms: _315  and  _317
REMARK  126  A    between atoms: _317  and  _318
REMARK  127  A    between atoms: _317  and  _320
REMARK  128  A    between atoms: _320  and  _321
REMARK  129  A    between atoms: _321  and  _322
REMARK  130  A    between atoms: _322  and  _323
REMARK  131  A    between atoms: _323  and  _324
REMARK  132  A    between atoms: _328  and  _330
REMARK  133  A    between atoms: _330  and  _331
REMARK  134  A    between atoms: _330  and  _333
REMARK  135  A    between atoms: _333  and  _334
REMARK  136  A    between atoms: _337  and  _339
REMARK  137  A    between atoms: _339  and  _340
REMARK  138  A    between atoms: _339  and  _342
REMARK  139  A    between atoms: _342  and  _343
REMARK  140  A    between atoms: _343  and  _344
REMARK  141  A    between atoms: _349  and  _351
REMARK  142  A    between atoms: _351  and  _352
REMARK  143  A    between atoms: _351  and  _354
REMARK  144  A    between atoms: _354  and  _355
REMARK  145  A    between atoms: _358  and  _360
REMARK  146  A    between atoms: _360  and  _361
REMARK  147  A    between atoms: _363  and  _365
REMARK  148  A    between atoms: _365  and  _366
REMARK  149  A    between atoms: _365  and  _368
REMARK  150  A    between atoms: _372  and  _373
REMARK  151  A    between atoms: _378  and  _380
REMARK  152  A    between atoms: _380  and  _381
REMARK  153  A    between atoms: _380  and  _383
REMARK  154  A    between atoms: _383  and  _384
REMARK  155  A    between atoms: _387  and  _389
REMARK  156  A    between atoms: _389  and  _390
REMARK  157  A    between atoms: _389  and  _392
REMARK  158  A    between atoms: _395  and  _397
REMARK  159  A    between atoms: _397  and  _398
REMARK  160  A    between atoms: _397  and  _400
REMARK  161  A    between atoms: _400  and  _401
REMARK  162  A    between atoms: _401  and  _402
REMARK  163  A    between atoms: _402  and  _403
REMARK  164  A    between atoms: _412  and  _414
REMARK  165  A    between atoms: _414  and  _415
REMARK  166  A    between atoms: _414  and  _417
REMARK  167  A    between atoms: _417  and  _418
REMARK  168  A    between atoms: _421  and  _423
REMARK  169  A    between atoms: _423  and  _424
REMARK  170  A    between atoms: _427  and  _429
REMARK  171  A    between atoms: _429  and  _430
REMARK  172  A    between atoms: _429  and  _432
REMARK  173  A    between atoms: _432  and  _433
REMARK  174  A    between atoms: _433  and  _434
REMARK  175  A    between atoms: _436  and  _438
REMARK  176  A    between atoms: _438  and  _439
REMARK  177  A    between atoms: _438  and  _441
REMARK  178  A    between atoms: _441  and  _442
REMARK  179  A    between atoms: _444  and  _446
REMARK  180  A    between atoms: _446  and  _447
REMARK  181  A    between atoms: _446  and  _449
REMARK  182  A    between atoms: _449  and  _450
REMARK  183  A    between atoms: _452  and  _454
REMARK  184  A    between atoms: _454  and  _455
REMARK  185  A    between atoms: _454  and  _457
REMARK  186  A    between atoms: _457  and  _458
REMARK  187  A    between atoms: _458  and  _459
REMARK  188  A    between atoms: _459  and  _460
REMARK  189  A    between atoms: _469  and  _471
REMARK  190  A    between atoms: _471  and  _472
REMARK  191  A    between atoms: _471  and  _474
REMARK  192  A    between atoms: _474  and  _475
REMARK  193  A    between atoms: _480  and  _482
REMARK  194  A    between atoms: _482  and  _483
REMARK  195  A    between atoms: _482  and  _485
REMARK  196  A    between atoms: _485  and  _486
REMARK  197  A    between atoms: _486  and  _487
REMARK  198  A    between atoms: _487  and  _488
REMARK  199  A    between atoms: _497  and  _499
REMARK  200  A    between atoms: _499  and  _500
REMARK  201  A    between atoms: _499  and  _502
REMARK  202  A    between atoms: _502  and  _503
REMARK  203  A    between atoms: _503  and  _504
REMARK  204  A    between atoms: _504  and  _505
REMARK  205  A    between atoms: _514  and  _516
REMARK  206  A    between atoms: _516  and  _517
REMARK  207  A    between atoms: _516  and  _519
REMARK  208  A    between atoms: _519  and  _520
REMARK  209  A    between atoms: _523  and  _525
REMARK  210  A    between atoms: _525  and  _526
REMARK  211  A    between atoms: _525  and  _528
REMARK  212  A    between atoms: _528  and  _529
REMARK                            x       y       z     vdW  Elec       q    Type
REMARK                         _______ _______ _______ _____ _____    ______ ____
ROOT
ATOM      1  O   HOH     1      23.022   9.849   6.594  0.00  0.00    +0.000 OA
ENDROOT
TORSDOF 0
REMARK  Name = ../refined-set-2016/3ivc/3ivc_pocket.pdb
REMARK  212 active torsions:
REMARK  status: ('A' for Active; 'I' for Inactive)
REMARK    1  A    between atoms: _1  and  _3
REMARK    2  A    between atoms: _3  and  _4
REMARK    3  A    between atoms: _3  and  _6
REMARK    4  A    between atoms: _10  and  _11
REMARK    5  A    between atoms: _16  and  _18
REMARK    6  A    between atoms: _18  and  _19
REMARK    7  A    between atoms: _18  and  _21
REMARK    8  A    between atoms: _21  and  _22
REMARK    9  A    between atoms: _25  and  _27
REMARK   10  A    between atoms: _27  and  _28
REMARK   11  A    between atoms: _27  and  _30
REMARK   12  A    between atoms: _30  and  _31
REMARK   13  A    between atoms: _31  and  _32
REMARK   14  A    between atoms: _34  and  _36
REMARK   15  A    between atoms: _36  and  _37
REMARK   16  A    between atoms: _39  and  _41
REMARK   17  A    between atoms: _41  and  _42
REMARK   18  A    between atoms: _45  and  _47
REMARK   19  A    between atoms: _47  and  _48
REMARK   20  A    between atoms: _47  and  _50
REMARK   21  A    between atoms: _50  and  _51
REMARK   22  A    between atoms: _54  and  _56
REMARK   23  A    between atoms: _56  and  _57
REMARK   24  A    between atoms: _56  and  _59
REMARK   25  A    between atoms: _59  and  _60
REMARK   26  A    between atoms: _65  and  _67
REMARK   27  A    between atoms: _67  and  _68
REMARK   28  A    between atoms: _67  and  _70
REMARK   29  A    between atoms: _70  and  _71
REMARK   30  A    between atoms: _71  and  _72
REMARK   31  A    between atoms: _75  and  _77
REMARK   32  A    between atoms: _77  and  _78
REMARK   33  A    between atoms: _80  and  _82
REMARK   34  A    between atoms: _82  and  _83
REMARK   35  A    between atoms: _82  and  _85
REMARK   36  A    between atoms: _85  and  _86
REMARK   37  A    between atoms: _91  and  _93
REMARK   38  A    between atoms: _93  and  _94
REMARK   39  A    between atoms: _93  and  _96
REMARK   40  A    between atoms: _96  and  _97
REMARK   41  A    between atoms: _100  and  _102
REMARK   42  A    between atoms: _102  and  _103
REMARK   43  A    between atoms: _106  and  _108
REMARK   44  A    between atoms: _108  and  _109
REMARK   45  A    between atoms: _108  and  _111
REMARK   46  A    between atoms: _111  and  _112
REMARK   47  A    between atoms: _115  and  _117
REMARK   48  A    between atoms: _117  and  _118
REMARK   49  A    between atoms: _117  and  _120
REMARK   50  A    between atoms: _123  and  _125
REMARK   51  A    between atoms: _125  and  _126
REMARK   52  A    between atoms: _125  and  _128
REMARK   53  A    between atoms: _128  and  _129
REMARK   54  A    between atoms: _131  and  _133
REMARK   55  A    between atoms: _133  and  _134
REMARK   56  A    between atoms: _133  and  _136
REMARK   57  A    between atoms: _136  and  _137
REMARK   58  A    between atoms: _140  and  _142
REMARK   59  A    between atoms: _142  and  _143
REMARK   60  A    between atoms: _142  and  _145
REMARK   61  A    between atoms: _145  and  _146
REMARK   62  A    between atoms: _152  and  _154
REMARK   63  A    between atoms: _154  and  _155
REMARK   64  A    between atoms: _154  and  _157
REMARK   65  A    between atoms: _157  and  _158
REMARK   66  A    between atoms: _163  and  _165
REMARK   67  A    between atoms: _165  and  _166
REMARK   68  A    between atoms: _165  and  _168
REMARK   69  A    between atoms: _168  and  _169
REMARK   70  A    between atoms: _169  and  _170
REMARK   71  A    between atoms: _175  and  _177
REMARK   72  A    between atoms: _177  and  _178
REMARK   73  A    between atoms: _177  and  _180
REMARK   74  A    between atoms: _180  and  _181
REMARK   75  A    between atoms: _186  and  _187
REMARK   76  A    between atoms: _189  and  _191
REMARK   77  A    between atoms: _191  and  _192
REMARK   78  A    between atoms: _191  and  _194
REMARK   79  A    between atoms: _194  and  _195
REMARK   80  A    between atoms: _200  and  _202
REMARK   81  A    between atoms: _202  and  _203
REMARK   82  A    between atoms: _202  and  _205
REMARK   83  A    between atoms: _205  and  _206
REMARK   84  A    between atoms: _212  and  _214
REMARK   85  A    between atoms: _214  and  _215
REMARK   86  A    between atoms: _217  and  _219
REMARK   87  A    between atoms: _219  and  _220
REMARK   88  A    between atoms: _219  and  _222
REMARK   89  A    between atoms: _225  and  _227
REMARK   90  A    between atoms: _227  and  _228
REMARK   91  A    between atoms: _227  and  _230
REMARK   92  A    between atoms: _230  and  _231
REMARK   93  A    between atoms: _234  and  _236
REMARK   94  A    between atoms: _236  and  _237
REMARK   95  A    between atoms: _236  and  _239
REMARK   96  A    between atoms: _242  and  _244
REMARK   97  A    between atoms: _244  and  _245
REMARK   98  A    between atoms: _244  and  _247
REMARK   99  A    between atoms: _250  and  _252
REMARK  100  A    between atoms: _252  and  _253
REMARK  101  A    between atoms: _252  and  _255
REMARK  102  A    between atoms: _255  and  _256
REMARK  103  A    between atoms: _259  and  _261
REMARK  104  A    between atoms: _261  and  _262
REMARK  105  A    between atoms: _261  and  _264
REMARK  106  A    between atoms: _264  and  _265
REMARK  107  A    between atoms: _268  and  _270
REMARK  108  A    between atoms: _270  and  _271
REMARK  109  A    between atoms: _270  and  _273
REMARK  110  A    between atoms: _276  and  _278
REMARK  111  A    between atoms: _278  and  _279
REMARK  112  A    between atoms: _278  and  _281
REMARK  113  A    between atoms: _281  and  _282
REMARK  114  A    between atoms: _288  and  _290
REMARK  115  A    between atoms: _290  and  _291
REMARK  116  A    between atoms: _290  and  _293
REMARK  117  A    between atoms: _293  and  _294
REMARK  118  A    between atoms: _300  and  _302
REMARK  119  A    between atoms: _302  and  _303
REMARK  120  A    between atoms: _305  and  _307
REMARK  121  A    between atoms: _307  and  _308
REMARK  122  A    between atoms: _307  and  _310
REMARK  123  A    between atoms: _310  and  _311
REMARK  124  A    between atoms: _311  and  _312
REMARK  125  A    between atoms: _315  and  _317
REMARK  126  A    between atoms: _317  and  _318
REMARK  127  A    between atoms: _317  and  _320
REMARK  128  A    between atoms: _320  and  _321
REMARK  129  A    between atoms: _321  and  _322
REMARK  130  A    between atoms: _322  and  _323
REMARK  131  A    between atoms: _323  and  _324
REMARK  132  A    between atoms: _328  and  _330
REMARK  133  A    between atoms: _330  and  _331
REMARK  134  A    between atoms: _330  and  _333
REMARK  135  A    between atoms: _333  and  _334
REMARK  136  A    between atoms: _337  and  _339
REMARK  137  A    between atoms: _339  and  _340
REMARK  138  A    between atoms: _339  and  _342
REMARK  139  A    between atoms: _342  and  _343
REMARK  140  A    between atoms: _343  and  _344
REMARK  141  A    between atoms: _349  and  _351
REMARK  142  A    between atoms: _351  and  _352
REMARK  143  A    between atoms: _351  and  _354
REMARK  144  A    between atoms: _354  and  _355
REMARK  145  A    between atoms: _358  and  _360
REMARK  146  A    between atoms: _360  and  _361
REMARK  147  A    between atoms: _363  and  _365
REMARK  148  A    between atoms: _365  and  _366
REMARK  149  A    between atoms: _365  and  _368
REMARK  150  A    between atoms: _372  and  _373
REMARK  151  A    between atoms: _378  and  _380
REMARK  152  A    between atoms: _380  and  _381
REMARK  153  A    between atoms: _380  and  _383
REMARK  154  A    between atoms: _383  and  _384
REMARK  155  A    between atoms: _387  and  _389
REMARK  156  A    between atoms: _389  and  _390
REMARK  157  A    between atoms: _389  and  _392
REMARK  158  A    between atoms: _395  and  _397
REMARK  159  A    between atoms: _397  and  _398
REMARK  160  A    between atoms: _397  and  _400
REMARK  161  A    between atoms: _400  and  _401
REMARK  162  A    between atoms: _401  and  _402
REMARK  163  A    between atoms: _402  and  _403
REMARK  164  A    between atoms: _412  and  _414
REMARK  165  A    between atoms: _414  and  _415
REMARK  166  A    between atoms: _414  and  _417
REMARK  167  A    between atoms: _417  and  _418
REMARK  168  A    between atoms: _421  and  _423
REMARK  169  A    between atoms: _423  and  _424
REMARK  170  A    between atoms: _427  and  _429
REMARK  171  A    between atoms: _429  and  _430
REMARK  172  A    between atoms: _429  and  _432
REMARK  173  A    between atoms: _432  and  _433
REMARK  174  A    between atoms: _433  and  _434
REMARK  175  A    between atoms: _436  and  _438
REMARK  176  A    between atoms: _438  and  _439
REMARK  177  A    between atoms: _438  and  _441
REMARK  178  A    between atoms: _441  and  _442
REMARK  179  A    between atoms: _444  and  _446
REMARK  180  A    between atoms: _446  and  _447
REMARK  181  A    between atoms: _446  and  _449
REMARK  182  A    between atoms: _449  and  _450
REMARK  183  A    between atoms: _452  and  _454
REMARK  184  A    between atoms: _454  and  _455
REMARK  185  A    between atoms: _454  and  _457
REMARK  186  A    between atoms: _457  and  _458
REMARK  187  A    between atoms: _458  and  _459
REMARK  188  A    between atoms: _459  and  _460
REMARK  189  A    between atoms: _469  and  _471
REMARK  190  A    between atoms: _471  and  _472
REMARK  191  A    between atoms: _471  and  _474
REMARK  192  A    between atoms: _474  and  _475
REMARK  193  A    between atoms: _480  and  _482
REMARK  194  A    between atoms: _482  and  _483
REMARK  195  A    between atoms: _482  and  _485
REMARK  196  A    between atoms: _485  and  _486
REMARK  197  A    between atoms: _486  and  _487
REMARK  198  A    between atoms: _487  and  _488
REMARK  199  A    between atoms: _497  and  _499
REMARK  200  A    between atoms: _499  and  _500
REMARK  201  A    between atoms: _499  and  _502
REMARK  202  A    between atoms: _502  and  _503
REMARK  203  A    between atoms: _503  and  _504
REMARK  204  A    between atoms: _504  and  _505
REMARK  205  A    between atoms: _514  and  _516
REMARK  206  A    between atoms: _516  and  _517
REMARK  207  A    between atoms: _516  and  _519
REMARK  208  A    between atoms: _519  and  _520
REMARK  209  A    between atoms: _523  and  _525
REMARK  210  A    between atoms: _525  and  _526
REMARK  211  A    between atoms: _525  and  _528
REMARK  212  A    between atoms: _528  and  _529
REMARK                            x       y       z     vdW  Elec       q    Type
REMARK                         _______ _______ _______ _____ _____    ______ ____
ROOT
ATOM      1  O   HOH     1       4.068  10.670  -7.264  0.00  0.00    +0.000 OA
ENDROOT
TORSDOF 0
REMARK  Name = ../refined-set-2016/3ivc/3ivc_pocket.pdb
REMARK  212 active torsions:
REMARK  status: ('A' for Active; 'I' for Inactive)
REMARK    1  A    between atoms: _1  and  _3
REMARK    2  A    between atoms: _3  and  _4
REMARK    3  A    between atoms: _3  and  _6
REMARK    4  A    between atoms: _10  and  _11
REMARK    5  A    between atoms: _16  and  _18
REMARK    6  A    between atoms: _18  and  _19
REMARK    7  A    between atoms: _18  and  _21
REMARK    8  A    between atoms: _21  and  _22
REMARK    9  A    between atoms: _25  and  _27
REMARK   10  A    between atoms: _27  and  _28
REMARK   11  A    between atoms: _27  and  _30
REMARK   12  A    between atoms: _30  and  _31
REMARK   13  A    between atoms: _31  and  _32
REMARK   14  A    between atoms: _34  and  _36
REMARK   15  A    between atoms: _36  and  _37
REMARK   16  A    between atoms: _39  and  _41
REMARK   17  A    between atoms: _41  and  _42
REMARK   18  A    between atoms: _45  and  _47
REMARK   19  A    between atoms: _47  and  _48
REMARK   20  A    between atoms: _47  and  _50
REMARK   21  A    between atoms: _50  and  _51
REMARK   22  A    between atoms: _54  and  _56
REMARK   23  A    between atoms: _56  and  _57
REMARK   24  A    between atoms: _56  and  _59
REMARK   25  A    between atoms: _59  and  _60
REMARK   26  A    between atoms: _65  and  _67
REMARK   27  A    between atoms: _67  and  _68
REMARK   28  A    between atoms: _67  and  _70
REMARK   29  A    between atoms: _70  and  _71
REMARK   30  A    between atoms: _71  and  _72
REMARK   31  A    between atoms: _75  and  _77
REMARK   32  A    between atoms: _77  and  _78
REMARK   33  A    between atoms: _80  and  _82
REMARK   34  A    between atoms: _82  and  _83
REMARK   35  A    between atoms: _82  and  _85
REMARK   36  A    between atoms: _85  and  _86
REMARK   37  A    between atoms: _91  and  _93
REMARK   38  A    between atoms: _93  and  _94
REMARK   39  A    between atoms: _93  and  _96
REMARK   40  A    between atoms: _96  and  _97
REMARK   41  A    between atoms: _100  and  _102
REMARK   42  A    between atoms: _102  and  _103
REMARK   43  A    between atoms: _106  and  _108
REMARK   44  A    between atoms: _108  and  _109
REMARK   45  A    between atoms: _108  and  _111
REMARK   46  A    between atoms: _111  and  _112
REMARK   47  A    between atoms: _115  and  _117
REMARK   48  A    between atoms: _117  and  _118
REMARK   49  A    between atoms: _117  and  _120
REMARK   50  A    between atoms: _123  and  _125
REMARK   51  A    between atoms: _125  and  _126
REMARK   52  A    between atoms: _125  and  _128
REMARK   53  A    between atoms: _128  and  _129
REMARK   54  A    between atoms: _131  and  _133
REMARK   55  A    between atoms: _133  and  _134
REMARK   56  A    between atoms: _133  and  _136
REMARK   57  A    between atoms: _136  and  _137
REMARK   58  A    between atoms: _140  and  _142
REMARK   59  A    between atoms: _142  and  _143
REMARK   60  A    between atoms: _142  and  _145
REMARK   61  A    between atoms: _145  and  _146
REMARK   62  A    between atoms: _152  and  _154
REMARK   63  A    between atoms: _154  and  _155
REMARK   64  A    between atoms: _154  and  _157
REMARK   65  A    between atoms: _157  and  _158
REMARK   66  A    between atoms: _163  and  _165
REMARK   67  A    between atoms: _165  and  _166
REMARK   68  A    between atoms: _165  and  _168
REMARK   69  A    between atoms: _168  and  _169
REMARK   70  A    between atoms: _169  and  _170
REMARK   71  A    between atoms: _175  and  _177
REMARK   72  A    between atoms: _177  and  _178
REMARK   73  A    between atoms: _177  and  _180
REMARK   74  A    between atoms: _180  and  _181
REMARK   75  A    between atoms: _186  and  _187
REMARK   76  A    between atoms: _189  and  _191
REMARK   77  A    between atoms: _191  and  _192
REMARK   78  A    between atoms: _191  and  _194
REMARK   79  A    between atoms: _194  and  _195
REMARK   80  A    between atoms: _200  and  _202
REMARK   81  A    between atoms: _202  and  _203
REMARK   82  A    between atoms: _202  and  _205
REMARK   83  A    between atoms: _205  and  _206
REMARK   84  A    between atoms: _212  and  _214
REMARK   85  A    between atoms: _214  and  _215
REMARK   86  A    between atoms: _217  and  _219
REMARK   87  A    between atoms: _219  and  _220
REMARK   88  A    between atoms: _219  and  _222
REMARK   89  A    between atoms: _225  and  _227
REMARK   90  A    between atoms: _227  and  _228
REMARK   91  A    between atoms: _227  and  _230
REMARK   92  A    between atoms: _230  and  _231
REMARK   93  A    between atoms: _234  and  _236
REMARK   94  A    between atoms: _236  and  _237
REMARK   95  A    between atoms: _236  and  _239
REMARK   96  A    between atoms: _242  and  _244
REMARK   97  A    between atoms: _244  and  _245
REMARK   98  A    between atoms: _244  and  _247
REMARK   99  A    between atoms: _250  and  _252
REMARK  100  A    between atoms: _252  and  _253
REMARK  101  A    between atoms: _252  and  _255
REMARK  102  A    between atoms: _255  and  _256
REMARK  103  A    between atoms: _259  and  _261
REMARK  104  A    between atoms: _261  and  _262
REMARK  105  A    between atoms: _261  and  _264
REMARK  106  A    between atoms: _264  and  _265
REMARK  107  A    between atoms: _268  and  _270
REMARK  108  A    between atoms: _270  and  _271
REMARK  109  A    between atoms: _270  and  _273
REMARK  110  A    between atoms: _276  and  _278
REMARK  111  A    between atoms: _278  and  _279
REMARK  112  A    between atoms: _278  and  _281
REMARK  113  A    between atoms: _281  and  _282
REMARK  114  A    between atoms: _288  and  _290
REMARK  115  A    between atoms: _290  and  _291
REMARK  116  A    between atoms: _290  and  _293
REMARK  117  A    between atoms: _293  and  _294
REMARK  118  A    between atoms: _300  and  _302
REMARK  119  A    between atoms: _302  and  _303
REMARK  120  A    between atoms: _305  and  _307
REMARK  121  A    between atoms: _307  and  _308
REMARK  122  A    between atoms: _307  and  _310
REMARK  123  A    between atoms: _310  and  _311
REMARK  124  A    between atoms: _311  and  _312
REMARK  125  A    between atoms: _315  and  _317
REMARK  126  A    between atoms: _317  and  _318
REMARK  127  A    between atoms: _317  and  _320
REMARK  128  A    between atoms: _320  and  _321
REMARK  129  A    between atoms: _321  and  _322
REMARK  130  A    between atoms: _322  and  _323
REMARK  131  A    between atoms: _323  and  _324
REMARK  132  A    between atoms: _328  and  _330
REMARK  133  A    between atoms: _330  and  _331
REMARK  134  A    between atoms: _330  and  _333
REMARK  135  A    between atoms: _333  and  _334
REMARK  136  A    between atoms: _337  and  _339
REMARK  137  A    between atoms: _339  and  _340
REMARK  138  A    between atoms: _339  and  _342
REMARK  139  A    between atoms: _342  and  _343
REMARK  140  A    between atoms: _343  and  _344
REMARK  141  A    between atoms: _349  and  _351
REMARK  142  A    between atoms: _351  and  _352
REMARK  143  A    between atoms: _351  and  _354
REMARK  144  A    between atoms: _354  and  _355
REMARK  145  A    between atoms: _358  and  _360
REMARK  146  A    between atoms: _360  and  _361
REMARK  147  A    between atoms: _363  and  _365
REMARK  148  A    between atoms: _365  and  _366
REMARK  149  A    between atoms: _365  and  _368
REMARK  150  A    between atoms: _372  and  _373
REMARK  151  A    between atoms: _378  and  _380
REMARK  152  A    between atoms: _380  and  _381
REMARK  153  A    between atoms: _380  and  _383
REMARK  154  A    between atoms: _383  and  _384
REMARK  155  A    between atoms: _387  and  _389
REMARK  156  A    between atoms: _389  and  _390
REMARK  157  A    between atoms: _389  and  _392
REMARK  158  A    between atoms: _395  and  _397
REMARK  159  A    between atoms: _397  and  _398
REMARK  160  A    between atoms: _397  and  _400
REMARK  161  A    between atoms: _400  and  _401
REMARK  162  A    between atoms: _401  and  _402
REMARK  163  A    between atoms: _402  and  _403
REMARK  164  A    between atoms: _412  and  _414
REMARK  165  A    between atoms: _414  and  _415
REMARK  166  A    between atoms: _414  and  _417
REMARK  167  A    between atoms: _417  and  _418
REMARK  168  A    between atoms: _421  and  _423
REMARK  169  A    between atoms: _423  and  _424
REMARK  170  A    between atoms: _427  and  _429
REMARK  171  A    between atoms: _429  and  _430
REMARK  172  A    between atoms: _429  and  _432
REMARK  173  A    between atoms: _432  and  _433
REMARK  174  A    between atoms: _433  and  _434
REMARK  175  A    between atoms: _436  and  _438
REMARK  176  A    between atoms: _438  and  _439
REMARK  177  A    between atoms: _438  and  _441
REMARK  178  A    between atoms: _441  and  _442
REMARK  179  A    between atoms: _444  and  _446
REMARK  180  A    between atoms: _446  and  _447
REMARK  181  A    between atoms: _446  and  _449
REMARK  182  A    between atoms: _449  and  _450
REMARK  183  A    between atoms: _452  and  _454
REMARK  184  A    between atoms: _454  and  _455
REMARK  185  A    between atoms: _454  and  _457
REMARK  186  A    between atoms: _457  and  _458
REMARK  187  A    between atoms: _458  and  _459
REMARK  188  A    between atoms: _459  and  _460
REMARK  189  A    between atoms: _469  and  _471
REMARK  190  A    between atoms: _471  and  _472
REMARK  191  A    between atoms: _471  and  _474
REMARK  192  A    between atoms: _474  and  _475
REMARK  193  A    between atoms: _480  and  _482
REMARK  194  A    between atoms: _482  and  _483
REMARK  195  A    between atoms: _482  and  _485
REMARK  196  A    between atoms: _485  and  _486
REMARK  197  A    between atoms: _486  and  _487
REMARK  198  A    between atoms: _487  and  _488
REMARK  199  A    between atoms: _497  and  _499
REMARK  200  A    between atoms: _499  and  _500
REMARK  201  A    between atoms: _499  and  _502
REMARK  202  A    between atoms: _502  and  _503
REMARK  203  A    between atoms: _503  and  _504
REMARK  204  A    between atoms: _504  and  _505
REMARK  205  A    between atoms: _514  and  _516
REMARK  206  A    between atoms: _516  and  _517
REMARK  207  A    between atoms: _516  and  _519
REMARK  208  A    between atoms: _519  and  _520
REMARK  209  A    between atoms: _523  and  _525
REMARK  210  A    between atoms: _525  and  _526
REMARK  211  A    between atoms: _525  and  _528
REMARK  212  A    between atoms: _528  and  _529
REMARK                            x       y       z     vdW  Elec       q    Type
REMARK                         _______ _______ _______ _____ _____    ______ ____
ROOT
ATOM      1  O   HOH     1       8.233  13.729 -11.059  0.00  0.00    +0.000 OA
ENDROOT
TORSDOF 0
REMARK  Name = ../refined-set-2016/3ivc/3ivc_pocket.pdb
REMARK  212 active torsions:
REMARK  status: ('A' for Active; 'I' for Inactive)
REMARK    1  A    between atoms: _1  and  _3
REMARK    2  A    between atoms: _3  and  _4
REMARK    3  A    between atoms: _3  and  _6
REMARK    4  A    between atoms: _10  and  _11
REMARK    5  A    between atoms: _16  and  _18
REMARK    6  A    between atoms: _18  and  _19
REMARK    7  A    between atoms: _18  and  _21
REMARK    8  A    between atoms: _21  and  _22
REMARK    9  A    between atoms: _25  and  _27
REMARK   10  A    between atoms: _27  and  _28
REMARK   11  A    between atoms: _27  and  _30
REMARK   12  A    between atoms: _30  and  _31
REMARK   13  A    between atoms: _31  and  _32
REMARK   14  A    between atoms: _34  and  _36
REMARK   15  A    between atoms: _36  and  _37
REMARK   16  A    between atoms: _39  and  _41
REMARK   17  A    between atoms: _41  and  _42
REMARK   18  A    between atoms: _45  and  _47
REMARK   19  A    between atoms: _47  and  _48
REMARK   20  A    between atoms: _47  and  _50
REMARK   21  A    between atoms: _50  and  _51
REMARK   22  A    between atoms: _54  and  _56
REMARK   23  A    between atoms: _56  and  _57
REMARK   24  A    between atoms: _56  and  _59
REMARK   25  A    between atoms: _59  and  _60
REMARK   26  A    between atoms: _65  and  _67
REMARK   27  A    between atoms: _67  and  _68
REMARK   28  A    between atoms: _67  and  _70
REMARK   29  A    between atoms: _70  and  _71
REMARK   30  A    between atoms: _71  and  _72
REMARK   31  A    between atoms: _75  and  _77
REMARK   32  A    between atoms: _77  and  _78
REMARK   33  A    between atoms: _80  and  _82
REMARK   34  A    between atoms: _82  and  _83
REMARK   35  A    between atoms: _82  and  _85
REMARK   36  A    between atoms: _85  and  _86
REMARK   37  A    between atoms: _91  and  _93
REMARK   38  A    between atoms: _93  and  _94
REMARK   39  A    between atoms: _93  and  _96
REMARK   40  A    between atoms: _96  and  _97
REMARK   41  A    between atoms: _100  and  _102
REMARK   42  A    between atoms: _102  and  _103
REMARK   43  A    between atoms: _106  and  _108
REMARK   44  A    between atoms: _108  and  _109
REMARK   45  A    between atoms: _108  and  _111
REMARK   46  A    between atoms: _111  and  _112
REMARK   47  A    between atoms: _115  and  _117
REMARK   48  A    between atoms: _117  and  _118
REMARK   49  A    between atoms: _117  and  _120
REMARK   50  A    between atoms: _123  and  _125
REMARK   51  A    between atoms: _125  and  _126
REMARK   52  A    between atoms: _125  and  _128
REMARK   53  A    between atoms: _128  and  _129
REMARK   54  A    between atoms: _131  and  _133
REMARK   55  A    between atoms: _133  and  _134
REMARK   56  A    between atoms: _133  and  _136
REMARK   57  A    between atoms: _136  and  _137
REMARK   58  A    between atoms: _140  and  _142
REMARK   59  A    between atoms: _142  and  _143
REMARK   60  A    between atoms: _142  and  _145
REMARK   61  A    between atoms: _145  and  _146
REMARK   62  A    between atoms: _152  and  _154
REMARK   63  A    between atoms: _154  and  _155
REMARK   64  A    between atoms: _154  and  _157
REMARK   65  A    between atoms: _157  and  _158
REMARK   66  A    between atoms: _163  and  _165
REMARK   67  A    between atoms: _165  and  _166
REMARK   68  A    between atoms: _165  and  _168
REMARK   69  A    between atoms: _168  and  _169
REMARK   70  A    between atoms: _169  and  _170
REMARK   71  A    between atoms: _175  and  _177
REMARK   72  A    between atoms: _177  and  _178
REMARK   73  A    between atoms: _177  and  _180
REMARK   74  A    between atoms: _180  and  _181
REMARK   75  A    between atoms: _186  and  _187
REMARK   76  A    between atoms: _189  and  _191
REMARK   77  A    between atoms: _191  and  _192
REMARK   78  A    between atoms: _191  and  _194
REMARK   79  A    between atoms: _194  and  _195
REMARK   80  A    between atoms: _200  and  _202
REMARK   81  A    between atoms: _202  and  _203
REMARK   82  A    between atoms: _202  and  _205
REMARK   83  A    between atoms: _205  and  _206
REMARK   84  A    between atoms: _212  and  _214
REMARK   85  A    between atoms: _214  and  _215
REMARK   86  A    between atoms: _217  and  _219
REMARK   87  A    between atoms: _219  and  _220
REMARK   88  A    between atoms: _219  and  _222
REMARK   89  A    between atoms: _225  and  _227
REMARK   90  A    between atoms: _227  and  _228
REMARK   91  A    between atoms: _227  and  _230
REMARK   92  A    between atoms: _230  and  _231
REMARK   93  A    between atoms: _234  and  _236
REMARK   94  A    between atoms: _236  and  _237
REMARK   95  A    between atoms: _236  and  _239
REMARK   96  A    between atoms: _242  and  _244
REMARK   97  A    between atoms: _244  and  _245
REMARK   98  A    between atoms: _244  and  _247
REMARK   99  A    between atoms: _250  and  _252
REMARK  100  A    between atoms: _252  and  _253
REMARK  101  A    between atoms: _252  and  _255
REMARK  102  A    between atoms: _255  and  _256
REMARK  103  A    between atoms: _259  and  _261
REMARK  104  A    between atoms: _261  and  _262
REMARK  105  A    between atoms: _261  and  _264
REMARK  106  A    between atoms: _264  and  _265
REMARK  107  A    between atoms: _268  and  _270
REMARK  108  A    between atoms: _270  and  _271
REMARK  109  A    between atoms: _270  and  _273
REMARK  110  A    between atoms: _276  and  _278
REMARK  111  A    between atoms: _278  and  _279
REMARK  112  A    between atoms: _278  and  _281
REMARK  113  A    between atoms: _281  and  _282
REMARK  114  A    between atoms: _288  and  _290
REMARK  115  A    between atoms: _290  and  _291
REMARK  116  A    between atoms: _290  and  _293
REMARK  117  A    between atoms: _293  and  _294
REMARK  118  A    between atoms: _300  and  _302
REMARK  119  A    between atoms: _302  and  _303
REMARK  120  A    between atoms: _305  and  _307
REMARK  121  A    between atoms: _307  and  _308
REMARK  122  A    between atoms: _307  and  _310
REMARK  123  A    between atoms: _310  and  _311
REMARK  124  A    between atoms: _311  and  _312
REMARK  125  A    between atoms: _315  and  _317
REMARK  126  A    between atoms: _317  and  _318
REMARK  127  A    between atoms: _317  and  _320
REMARK  128  A    between atoms: _320  and  _321
REMARK  129  A    between atoms: _321  and  _322
REMARK  130  A    between atoms: _322  and  _323
REMARK  131  A    between atoms: _323  and  _324
REMARK  132  A    between atoms: _328  and  _330
REMARK  133  A    between atoms: _330  and  _331
REMARK  134  A    between atoms: _330  and  _333
REMARK  135  A    between atoms: _333  and  _334
REMARK  136  A    between atoms: _337  and  _339
REMARK  137  A    between atoms: _339  and  _340
REMARK  138  A    between atoms: _339  and  _342
REMARK  139  A    between atoms: _342  and  _343
REMARK  140  A    between atoms: _343  and  _344
REMARK  141  A    between atoms: _349  and  _351
REMARK  142  A    between atoms: _351  and  _352
REMARK  143  A    between atoms: _351  and  _354
REMARK  144  A    between atoms: _354  and  _355
REMARK  145  A    between atoms: _358  and  _360
REMARK  146  A    between atoms: _360  and  _361
REMARK  147  A    between atoms: _363  and  _365
REMARK  148  A    between atoms: _365  and  _366
REMARK  149  A    between atoms: _365  and  _368
REMARK  150  A    between atoms: _372  and  _373
REMARK  151  A    between atoms: _378  and  _380
REMARK  152  A    between atoms: _380  and  _381
REMARK  153  A    between atoms: _380  and  _383
REMARK  154  A    between atoms: _383  and  _384
REMARK  155  A    between atoms: _387  and  _389
REMARK  156  A    between atoms: _389  and  _390
REMARK  157  A    between atoms: _389  and  _392
REMARK  158  A    between atoms: _395  and  _397
REMARK  159  A    between atoms: _397  and  _398
REMARK  160  A    between atoms: _397  and  _400
REMARK  161  A    between atoms: _400  and  _401
REMARK  162  A    between atoms: _401  and  _402
REMARK  163  A    between atoms: _402  and  _403
REMARK  164  A    between atoms: _412  and  _414
REMARK  165  A    between atoms: _414  and  _415
REMARK  166  A    between atoms: _414  and  _417
REMARK  167  A    between atoms: _417  and  _418
REMARK  168  A    between atoms: _421  and  _423
REMARK  169  A    between atoms: _423  and  _424
REMARK  170  A    between atoms: _427  and  _429
REMARK  171  A    between atoms: _429  and  _430
REMARK  172  A    between atoms: _429  and  _432
REMARK  173  A    between atoms: _432  and  _433
REMARK  174  A    between atoms: _433  and  _434
REMARK  175  A    between atoms: _436  and  _438
REMARK  176  A    between atoms: _438  and  _439
REMARK  177  A    between atoms: _438  and  _441
REMARK  178  A    between atoms: _441  and  _442
REMARK  179  A    between atoms: _444  and  _446
REMARK  180  A    between atoms: _446  and  _447
REMARK  181  A    between atoms: _446  and  _449
REMARK  182  A    between atoms: _449  and  _450
REMARK  183  A    between atoms: _452  and  _454
REMARK  184  A    between atoms: _454  and  _455
REMARK  185  A    between atoms: _454  and  _457
REMARK  186  A    between atoms: _457  and  _458
REMARK  187  A    between atoms: _458  and  _459
REMARK  188  A    between atoms: _459  and  _460
REMARK  189  A    between atoms: _469  and  _471
REMARK  190  A    between atoms: _471  and  _472
REMARK  191  A    between atoms: _471  and  _474
REMARK  192  A    between atoms: _474  and  _475
REMARK  193  A    between atoms: _480  and  _482
REMARK  194  A    between atoms: _482  and  _483
REMARK  195  A    between atoms: _482  and  _485
REMARK  196  A    between atoms: _485  and  _486
REMARK  197  A    between atoms: _486  and  _487
REMARK  198  A    between atoms: _487  and  _488
REMARK  199  A    between atoms: _497  and  _499
REMARK  200  A    between atoms: _499  and  _500
REMARK  201  A    between atoms: _499  and  _502
REMARK  202  A    between atoms: _502  and  _503
REMARK  203  A    between atoms: _503  and  _504
REMARK  204  A    between atoms: _504  and  _505
REMARK  205  A    between atoms: _514  and  _516
REMARK  206  A    between atoms: _516  and  _517
REMARK  207  A    between atoms: _516  and  _519
REMARK  208  A    between atoms: _519  and  _520
REMARK  209  A    between atoms: _523  and  _525
REMARK  210  A    between atoms: _525  and  _526
REMARK  211  A    between atoms: _525  and  _528
REMARK  212  A    between atoms: _528  and  _529
REMARK                            x       y       z     vdW  Elec       q    Type
REMARK                         _______ _______ _______ _____ _____    ______ ____
ROOT
ATOM      1  O   HOH     1      19.052   4.884   5.389  0.00  0.00    +0.000 OA
ENDROOT
TORSDOF 0
REMARK  Name = ../refined-set-2016/3ivc/3ivc_pocket.pdb
REMARK  212 active torsions:
REMARK  status: ('A' for Active; 'I' for Inactive)
REMARK    1  A    between atoms: _1  and  _3
REMARK    2  A    between atoms: _3  and  _4
REMARK    3  A    between atoms: _3  and  _6
REMARK    4  A    between atoms: _10  and  _11
REMARK    5  A    between atoms: _16  and  _18
REMARK    6  A    between atoms: _18  and  _19
REMARK    7  A    between atoms: _18  and  _21
REMARK    8  A    between atoms: _21  and  _22
REMARK    9  A    between atoms: _25  and  _27
REMARK   10  A    between atoms: _27  and  _28
REMARK   11  A    between atoms: _27  and  _30
REMARK   12  A    between atoms: _30  and  _31
REMARK   13  A    between atoms: _31  and  _32
REMARK   14  A    between atoms: _34  and  _36
REMARK   15  A    between atoms: _36  and  _37
REMARK   16  A    between atoms: _39  and  _41
REMARK   17  A    between atoms: _41  and  _42
REMARK   18  A    between atoms: _45  and  _47
REMARK   19  A    between atoms: _47  and  _48
REMARK   20  A    between atoms: _47  and  _50
REMARK   21  A    between atoms: _50  and  _51
REMARK   22  A    between atoms: _54  and  _56
REMARK   23  A    between atoms: _56  and  _57
REMARK   24  A    between atoms: _56  and  _59
REMARK   25  A    between atoms: _59  and  _60
REMARK   26  A    between atoms: _65  and  _67
REMARK   27  A    between atoms: _67  and  _68
REMARK   28  A    between atoms: _67  and  _70
REMARK   29  A    between atoms: _70  and  _71
REMARK   30  A    between atoms: _71  and  _72
REMARK   31  A    between atoms: _75  and  _77
REMARK   32  A    between atoms: _77  and  _78
REMARK   33  A    between atoms: _80  and  _82
REMARK   34  A    between atoms: _82  and  _83
REMARK   35  A    between atoms: _82  and  _85
REMARK   36  A    between atoms: _85  and  _86
REMARK   37  A    between atoms: _91  and  _93
REMARK   38  A    between atoms: _93  and  _94
REMARK   39  A    between atoms: _93  and  _96
REMARK   40  A    between atoms: _96  and  _97
REMARK   41  A    between atoms: _100  and  _102
REMARK   42  A    between atoms: _102  and  _103
REMARK   43  A    between atoms: _106  and  _108
REMARK   44  A    between atoms: _108  and  _109
REMARK   45  A    between atoms: _108  and  _111
REMARK   46  A    between atoms: _111  and  _112
REMARK   47  A    between atoms: _115  and  _117
REMARK   48  A    between atoms: _117  and  _118
REMARK   49  A    between atoms: _117  and  _120
REMARK   50  A    between atoms: _123  and  _125
REMARK   51  A    between atoms: _125  and  _126
REMARK   52  A    between atoms: _125  and  _128
REMARK   53  A    between atoms: _128  and  _129
REMARK   54  A    between atoms: _131  and  _133
REMARK   55  A    between atoms: _133  and  _134
REMARK   56  A    between atoms: _133  and  _136
REMARK   57  A    between atoms: _136  and  _137
REMARK   58  A    between atoms: _140  and  _142
REMARK   59  A    between atoms: _142  and  _143
REMARK   60  A    between atoms: _142  and  _145
REMARK   61  A    between atoms: _145  and  _146
REMARK   62  A    between atoms: _152  and  _154
REMARK   63  A    between atoms: _154  and  _155
REMARK   64  A    between atoms: _154  and  _157
REMARK   65  A    between atoms: _157  and  _158
REMARK   66  A    between atoms: _163  and  _165
REMARK   67  A    between atoms: _165  and  _166
REMARK   68  A    between atoms: _165  and  _168
REMARK   69  A    between atoms: _168  and  _169
REMARK   70  A    between atoms: _169  and  _170
REMARK   71  A    between atoms: _175  and  _177
REMARK   72  A    between atoms: _177  and  _178
REMARK   73  A    between atoms: _177  and  _180
REMARK   74  A    between atoms: _180  and  _181
REMARK   75  A    between atoms: _186  and  _187
REMARK   76  A    between atoms: _189  and  _191
REMARK   77  A    between atoms: _191  and  _192
REMARK   78  A    between atoms: _191  and  _194
REMARK   79  A    between atoms: _194  and  _195
REMARK   80  A    between atoms: _200  and  _202
REMARK   81  A    between atoms: _202  and  _203
REMARK   82  A    between atoms: _202  and  _205
REMARK   83  A    between atoms: _205  and  _206
REMARK   84  A    between atoms: _212  and  _214
REMARK   85  A    between atoms: _214  and  _215
REMARK   86  A    between atoms: _217  and  _219
REMARK   87  A    between atoms: _219  and  _220
REMARK   88  A    between atoms: _219  and  _222
REMARK   89  A    between atoms: _225  and  _227
REMARK   90  A    between atoms: _227  and  _228
REMARK   91  A    between atoms: _227  and  _230
REMARK   92  A    between atoms: _230  and  _231
REMARK   93  A    between atoms: _234  and  _236
REMARK   94  A    between atoms: _236  and  _237
REMARK   95  A    between atoms: _236  and  _239
REMARK   96  A    between atoms: _242  and  _244
REMARK   97  A    between atoms: _244  and  _245
REMARK   98  A    between atoms: _244  and  _247
REMARK   99  A    between atoms: _250  and  _252
REMARK  100  A    between atoms: _252  and  _253
REMARK  101  A    between atoms: _252  and  _255
REMARK  102  A    between atoms: _255  and  _256
REMARK  103  A    between atoms: _259  and  _261
REMARK  104  A    between atoms: _261  and  _262
REMARK  105  A    between atoms: _261  and  _264
REMARK  106  A    between atoms: _264  and  _265
REMARK  107  A    between atoms: _268  and  _270
REMARK  108  A    between atoms: _270  and  _271
REMARK  109  A    between atoms: _270  and  _273
REMARK  110  A    between atoms: _276  and  _278
REMARK  111  A    between atoms: _278  and  _279
REMARK  112  A    between atoms: _278  and  _281
REMARK  113  A    between atoms: _281  and  _282
REMARK  114  A    between atoms: _288  and  _290
REMARK  115  A    between atoms: _290  and  _291
REMARK  116  A    between atoms: _290  and  _293
REMARK  117  A    between atoms: _293  and  _294
REMARK  118  A    between atoms: _300  and  _302
REMARK  119  A    between atoms: _302  and  _303
REMARK  120  A    between atoms: _305  and  _307
REMARK  121  A    between atoms: _307  and  _308
REMARK  122  A    between atoms: _307  and  _310
REMARK  123  A    between atoms: _310  and  _311
REMARK  124  A    between atoms: _311  and  _312
REMARK  125  A    between atoms: _315  and  _317
REMARK  126  A    between atoms: _317  and  _318
REMARK  127  A    between atoms: _317  and  _320
REMARK  128  A    between atoms: _320  and  _321
REMARK  129  A    between atoms: _321  and  _322
REMARK  130  A    between atoms: _322  and  _323
REMARK  131  A    between atoms: _323  and  _324
REMARK  132  A    between atoms: _328  and  _330
REMARK  133  A    between atoms: _330  and  _331
REMARK  134  A    between atoms: _330  and  _333
REMARK  135  A    between atoms: _333  and  _334
REMARK  136  A    between atoms: _337  and  _339
REMARK  137  A    between atoms: _339  and  _340
REMARK  138  A    between atoms: _339  and  _342
REMARK  139  A    between atoms: _342  and  _343
REMARK  140  A    between atoms: _343  and  _344
REMARK  141  A    between atoms: _349  and  _351
REMARK  142  A    between atoms: _351  and  _352
REMARK  143  A    between atoms: _351  and  _354
REMARK  144  A    between atoms: _354  and  _355
REMARK  145  A    between atoms: _358  and  _360
REMARK  146  A    between atoms: _360  and  _361
REMARK  147  A    between atoms: _363  and  _365
REMARK  148  A    between atoms: _365  and  _366
REMARK  149  A    between atoms: _365  and  _368
REMARK  150  A    between atoms: _372  and  _373
REMARK  151  A    between atoms: _378  and  _380
REMARK  152  A    between atoms: _380  and  _381
REMARK  153  A    between atoms: _380  and  _383
REMARK  154  A    between atoms: _383  and  _384
REMARK  155  A    between atoms: _387  and  _389
REMARK  156  A    between atoms: _389  and  _390
REMARK  157  A    between atoms: _389  and  _392
REMARK  158  A    between atoms: _395  and  _397
REMARK  159  A    between atoms: _397  and  _398
REMARK  160  A    between atoms: _397  and  _400
REMARK  161  A    between atoms: _400  and  _401
REMARK  162  A    between atoms: _401  and  _402
REMARK  163  A    between atoms: _402  and  _403
REMARK  164  A    between atoms: _412  and  _414
REMARK  165  A    between atoms: _414  and  _415
REMARK  166  A    between atoms: _414  and  _417
REMARK  167  A    between atoms: _417  and  _418
REMARK  168  A    between atoms: _421  and  _423
REMARK  169  A    between atoms: _423  and  _424
REMARK  170  A    between atoms: _427  and  _429
REMARK  171  A    between atoms: _429  and  _430
REMARK  172  A    between atoms: _429  and  _432
REMARK  173  A    between atoms: _432  and  _433
REMARK  174  A    between atoms: _433  and  _434
REMARK  175  A    between atoms: _436  and  _438
REMARK  176  A    between atoms: _438  and  _439
REMARK  177  A    between atoms: _438  and  _441
REMARK  178  A    between atoms: _441  and  _442
REMARK  179  A    between atoms: _444  and  _446
REMARK  180  A    between atoms: _446  and  _447
REMARK  181  A    between atoms: _446  and  _449
REMARK  182  A    between atoms: _449  and  _450
REMARK  183  A    between atoms: _452  and  _454
REMARK  184  A    between atoms: _454  and  _455
REMARK  185  A    between atoms: _454  and  _457
REMARK  186  A    between atoms: _457  and  _458
REMARK  187  A    between atoms: _458  and  _459
REMARK  188  A    between atoms: _459  and  _460
REMARK  189  A    between atoms: _469  and  _471
REMARK  190  A    between atoms: _471  and  _472
REMARK  191  A    between atoms: _471  and  _474
REMARK  192  A    between atoms: _474  and  _475
REMARK  193  A    between atoms: _480  and  _482
REMARK  194  A    between atoms: _482  and  _483
REMARK  195  A    between atoms: _482  and  _485
REMARK  196  A    between atoms: _485  and  _486
REMARK  197  A    between atoms: _486  and  _487
REMARK  198  A    between atoms: _487  and  _488
REMARK  199  A    between atoms: _497  and  _499
REMARK  200  A    between atoms: _499  and  _500
REMARK  201  A    between atoms: _499  and  _502
REMARK  202  A    between atoms: _502  and  _503
REMARK  203  A    between atoms: _503  and  _504
REMARK  204  A    between atoms: _504  and  _505
REMARK  205  A    between atoms: _514  and  _516
REMARK  206  A    between atoms: _516  and  _517
REMARK  207  A    between atoms: _516  and  _519
REMARK  208  A    between atoms: _519  and  _520
REMARK  209  A    between atoms: _523  and  _525
REMARK  210  A    between atoms: _525  and  _526
REMARK  211  A    between atoms: _525  and  _528
REMARK  212  A    between atoms: _528  and  _529
REMARK                            x       y       z     vdW  Elec       q    Type
REMARK                         _______ _______ _______ _____ _____    ______ ____
ROOT
ATOM      1  O   HOH     1      12.421   2.674  -8.263  0.00  0.00    +0.000 OA
ENDROOT
TORSDOF 0
REMARK  Name = ../refined-set-2016/3ivc/3ivc_pocket.pdb
REMARK  212 active torsions:
REMARK  status: ('A' for Active; 'I' for Inactive)
REMARK    1  A    between atoms: _1  and  _3
REMARK    2  A    between atoms: _3  and  _4
REMARK    3  A    between atoms: _3  and  _6
REMARK    4  A    between atoms: _10  and  _11
REMARK    5  A    between atoms: _16  and  _18
REMARK    6  A    between atoms: _18  and  _19
REMARK    7  A    between atoms: _18  and  _21
REMARK    8  A    between atoms: _21  and  _22
REMARK    9  A    between atoms: _25  and  _27
REMARK   10  A    between atoms: _27  and  _28
REMARK   11  A    between atoms: _27  and  _30
REMARK   12  A    between atoms: _30  and  _31
REMARK   13  A    between atoms: _31  and  _32
REMARK   14  A    between atoms: _34  and  _36
REMARK   15  A    between atoms: _36  and  _37
REMARK   16  A    between atoms: _39  and  _41
REMARK   17  A    between atoms: _41  and  _42
REMARK   18  A    between atoms: _45  and  _47
REMARK   19  A    between atoms: _47  and  _48
REMARK   20  A    between atoms: _47  and  _50
REMARK   21  A    between atoms: _50  and  _51
REMARK   22  A    between atoms: _54  and  _56
REMARK   23  A    between atoms: _56  and  _57
REMARK   24  A    between atoms: _56  and  _59
REMARK   25  A    between atoms: _59  and  _60
REMARK   26  A    between atoms: _65  and  _67
REMARK   27  A    between atoms: _67  and  _68
REMARK   28  A    between atoms: _67  and  _70
REMARK   29  A    between atoms: _70  and  _71
REMARK   30  A    between atoms: _71  and  _72
REMARK   31  A    between atoms: _75  and  _77
REMARK   32  A    between atoms: _77  and  _78
REMARK   33  A    between atoms: _80  and  _82
REMARK   34  A    between atoms: _82  and  _83
REMARK   35  A    between atoms: _82  and  _85
REMARK   36  A    between atoms: _85  and  _86
REMARK   37  A    between atoms: _91  and  _93
REMARK   38  A    between atoms: _93  and  _94
REMARK   39  A    between atoms: _93  and  _96
REMARK   40  A    between atoms: _96  and  _97
REMARK   41  A    between atoms: _100  and  _102
REMARK   42  A    between atoms: _102  and  _103
REMARK   43  A    between atoms: _106  and  _108
REMARK   44  A    between atoms: _108  and  _109
REMARK   45  A    between atoms: _108  and  _111
REMARK   46  A    between atoms: _111  and  _112
REMARK   47  A    between atoms: _115  and  _117
REMARK   48  A    between atoms: _117  and  _118
REMARK   49  A    between atoms: _117  and  _120
REMARK   50  A    between atoms: _123  and  _125
REMARK   51  A    between atoms: _125  and  _126
REMARK   52  A    between atoms: _125  and  _128
REMARK   53  A    between atoms: _128  and  _129
REMARK   54  A    between atoms: _131  and  _133
REMARK   55  A    between atoms: _133  and  _134
REMARK   56  A    between atoms: _133  and  _136
REMARK   57  A    between atoms: _136  and  _137
REMARK   58  A    between atoms: _140  and  _142
REMARK   59  A    between atoms: _142  and  _143
REMARK   60  A    between atoms: _142  and  _145
REMARK   61  A    between atoms: _145  and  _146
REMARK   62  A    between atoms: _152  and  _154
REMARK   63  A    between atoms: _154  and  _155
REMARK   64  A    between atoms: _154  and  _157
REMARK   65  A    between atoms: _157  and  _158
REMARK   66  A    between atoms: _163  and  _165
REMARK   67  A    between atoms: _165  and  _166
REMARK   68  A    between atoms: _165  and  _168
REMARK   69  A    between atoms: _168  and  _169
REMARK   70  A    between atoms: _169  and  _170
REMARK   71  A    between atoms: _175  and  _177
REMARK   72  A    between atoms: _177  and  _178
REMARK   73  A    between atoms: _177  and  _180
REMARK   74  A    between atoms: _180  and  _181
REMARK   75  A    between atoms: _186  and  _187
REMARK   76  A    between atoms: _189  and  _191
REMARK   77  A    between atoms: _191  and  _192
REMARK   78  A    between atoms: _191  and  _194
REMARK   79  A    between atoms: _194  and  _195
REMARK   80  A    between atoms: _200  and  _202
REMARK   81  A    between atoms: _202  and  _203
REMARK   82  A    between atoms: _202  and  _205
REMARK   83  A    between atoms: _205  and  _206
REMARK   84  A    between atoms: _212  and  _214
REMARK   85  A    between atoms: _214  and  _215
REMARK   86  A    between atoms: _217  and  _219
REMARK   87  A    between atoms: _219  and  _220
REMARK   88  A    between atoms: _219  and  _222
REMARK   89  A    between atoms: _225  and  _227
REMARK   90  A    between atoms: _227  and  _228
REMARK   91  A    between atoms: _227  and  _230
REMARK   92  A    between atoms: _230  and  _231
REMARK   93  A    between atoms: _234  and  _236
REMARK   94  A    between atoms: _236  and  _237
REMARK   95  A    between atoms: _236  and  _239
REMARK   96  A    between atoms: _242  and  _244
REMARK   97  A    between atoms: _244  and  _245
REMARK   98  A    between atoms: _244  and  _247
REMARK   99  A    between atoms: _250  and  _252
REMARK  100  A    between atoms: _252  and  _253
REMARK  101  A    between atoms: _252  and  _255
REMARK  102  A    between atoms: _255  and  _256
REMARK  103  A    between atoms: _259  and  _261
REMARK  104  A    between atoms: _261  and  _262
REMARK  105  A    between atoms: _261  and  _264
REMARK  106  A    between atoms: _264  and  _265
REMARK  107  A    between atoms: _268  and  _270
REMARK  108  A    between atoms: _270  and  _271
REMARK  109  A    between atoms: _270  and  _273
REMARK  110  A    between atoms: _276  and  _278
REMARK  111  A    between atoms: _278  and  _279
REMARK  112  A    between atoms: _278  and  _281
REMARK  113  A    between atoms: _281  and  _282
REMARK  114  A    between atoms: _288  and  _290
REMARK  115  A    between atoms: _290  and  _291
REMARK  116  A    between atoms: _290  and  _293
REMARK  117  A    between atoms: _293  and  _294
REMARK  118  A    between atoms: _300  and  _302
REMARK  119  A    between atoms: _302  and  _303
REMARK  120  A    between atoms: _305  and  _307
REMARK  121  A    between atoms: _307  and  _308
REMARK  122  A    between atoms: _307  and  _310
REMARK  123  A    between atoms: _310  and  _311
REMARK  124  A    between atoms: _311  and  _312
REMARK  125  A    between atoms: _315  and  _317
REMARK  126  A    between atoms: _317  and  _318
REMARK  127  A    between atoms: _317  and  _320
REMARK  128  A    between atoms: _320  and  _321
REMARK  129  A    between atoms: _321  and  _322
REMARK  130  A    between atoms: _322  and  _323
REMARK  131  A    between atoms: _323  and  _324
REMARK  132  A    between atoms: _328  and  _330
REMARK  133  A    between atoms: _330  and  _331
REMARK  134  A    between atoms: _330  and  _333
REMARK  135  A    between atoms: _333  and  _334
REMARK  136  A    between atoms: _337  and  _339
REMARK  137  A    between atoms: _339  and  _340
REMARK  138  A    between atoms: _339  and  _342
REMARK  139  A    between atoms: _342  and  _343
REMARK  140  A    between atoms: _343  and  _344
REMARK  141  A    between atoms: _349  and  _351
REMARK  142  A    between atoms: _351  and  _352
REMARK  143  A    between atoms: _351  and  _354
REMARK  144  A    between atoms: _354  and  _355
REMARK  145  A    between atoms: _358  and  _360
REMARK  146  A    between atoms: _360  and  _361
REMARK  147  A    between atoms: _363  and  _365
REMARK  148  A    between atoms: _365  and  _366
REMARK  149  A    between atoms: _365  and  _368
REMARK  150  A    between atoms: _372  and  _373
REMARK  151  A    between atoms: _378  and  _380
REMARK  152  A    between atoms: _380  and  _381
REMARK  153  A    between atoms: _380  and  _383
REMARK  154  A    between atoms: _383  and  _384
REMARK  155  A    between atoms: _387  and  _389
REMARK  156  A    between atoms: _389  and  _390
REMARK  157  A    between atoms: _389  and  _392
REMARK  158  A    between atoms: _395  and  _397
REMARK  159  A    between atoms: _397  and  _398
REMARK  160  A    between atoms: _397  and  _400
REMARK  161  A    between atoms: _400  and  _401
REMARK  162  A    between atoms: _401  and  _402
REMARK  163  A    between atoms: _402  and  _403
REMARK  164  A    between atoms: _412  and  _414
REMARK  165  A    between atoms: _414  and  _415
REMARK  166  A    between atoms: _414  and  _417
REMARK  167  A    between atoms: _417  and  _418
REMARK  168  A    between atoms: _421  and  _423
REMARK  169  A    between atoms: _423  and  _424
REMARK  170  A    between atoms: _427  and  _429
REMARK  171  A    between atoms: _429  and  _430
REMARK  172  A    between atoms: _429  and  _432
REMARK  173  A    between atoms: _432  and  _433
REMARK  174  A    between atoms: _433  and  _434
REMARK  175  A    between atoms: _436  and  _438
REMARK  176  A    between atoms: _438  and  _439
REMARK  177  A    between atoms: _438  and  _441
REMARK  178  A    between atoms: _441  and  _442
REMARK  179  A    between atoms: _444  and  _446
REMARK  180  A    between atoms: _446  and  _447
REMARK  181  A    between atoms: _446  and  _449
REMARK  182  A    between atoms: _449  and  _450
REMARK  183  A    between atoms: _452  and  _454
REMARK  184  A    between atoms: _454  and  _455
REMARK  185  A    between atoms: _454  and  _457
REMARK  186  A    between atoms: _457  and  _458
REMARK  187  A    between atoms: _458  and  _459
REMARK  188  A    between atoms: _459  and  _460
REMARK  189  A    between atoms: _469  and  _471
REMARK  190  A    between atoms: _471  and  _472
REMARK  191  A    between atoms: _471  and  _474
REMARK  192  A    between atoms: _474  and  _475
REMARK  193  A    between atoms: _480  and  _482
REMARK  194  A    between atoms: _482  and  _483
REMARK  195  A    between atoms: _482  and  _485
REMARK  196  A    between atoms: _485  and  _486
REMARK  197  A    between atoms: _486  and  _487
REMARK  198  A    between atoms: _487  and  _488
REMARK  199  A    between atoms: _497  and  _499
REMARK  200  A    between atoms: _499  and  _500
REMARK  201  A    between atoms: _499  and  _502
REMARK  202  A    between atoms: _502  and  _503
REMARK  203  A    between atoms: _503  and  _504
REMARK  204  A    between atoms: _504  and  _505
REMARK  205  A    between atoms: _514  and  _516
REMARK  206  A    between atoms: _516  and  _517
REMARK  207  A    between atoms: _516  and  _519
REMARK  208  A    between atoms: _519  and  _520
REMARK  209  A    between atoms: _523  and  _525
REMARK  210  A    between atoms: _525  and  _526
REMARK  211  A    between atoms: _525  and  _528
REMARK  212  A    between atoms: _528  and  _529
REMARK                            x       y       z     vdW  Elec       q    Type
REMARK                         _______ _______ _______ _____ _____    ______ ____
ROOT
ATOM      1  O   HOH     1      22.208   9.706  -5.958  0.00  0.00    +0.000 OA
ENDROOT
TORSDOF 0
REMARK  Name = ../refined-set-2016/3ivc/3ivc_pocket.pdb
REMARK  212 active torsions:
REMARK  status: ('A' for Active; 'I' for Inactive)
REMARK    1  A    between atoms: _1  and  _3
REMARK    2  A    between atoms: _3  and  _4
REMARK    3  A    between atoms: _3  and  _6
REMARK    4  A    between atoms: _10  and  _11
REMARK    5  A    between atoms: _16  and  _18
REMARK    6  A    between atoms: _18  and  _19
REMARK    7  A    between atoms: _18  and  _21
REMARK    8  A    between atoms: _21  and  _22
REMARK    9  A    between atoms: _25  and  _27
REMARK   10  A    between atoms: _27  and  _28
REMARK   11  A    between atoms: _27  and  _30
REMARK   12  A    between atoms: _30  and  _31
REMARK   13  A    between atoms: _31  and  _32
REMARK   14  A    between atoms: _34  and  _36
REMARK   15  A    between atoms: _36  and  _37
REMARK   16  A    between atoms: _39  and  _41
REMARK   17  A    between atoms: _41  and  _42
REMARK   18  A    between atoms: _45  and  _47
REMARK   19  A    between atoms: _47  and  _48
REMARK   20  A    between atoms: _47  and  _50
REMARK   21  A    between atoms: _50  and  _51
REMARK   22  A    between atoms: _54  and  _56
REMARK   23  A    between atoms: _56  and  _57
REMARK   24  A    between atoms: _56  and  _59
REMARK   25  A    between atoms: _59  and  _60
REMARK   26  A    between atoms: _65  and  _67
REMARK   27  A    between atoms: _67  and  _68
REMARK   28  A    between atoms: _67  and  _70
REMARK   29  A    between atoms: _70  and  _71
REMARK   30  A    between atoms: _71  and  _72
REMARK   31  A    between atoms: _75  and  _77
REMARK   32  A    between atoms: _77  and  _78
REMARK   33  A    between atoms: _80  and  _82
REMARK   34  A    between atoms: _82  and  _83
REMARK   35  A    between atoms: _82  and  _85
REMARK   36  A    between atoms: _85  and  _86
REMARK   37  A    between atoms: _91  and  _93
REMARK   38  A    between atoms: _93  and  _94
REMARK   39  A    between atoms: _93  and  _96
REMARK   40  A    between atoms: _96  and  _97
REMARK   41  A    between atoms: _100  and  _102
REMARK   42  A    between atoms: _102  and  _103
REMARK   43  A    between atoms: _106  and  _108
REMARK   44  A    between atoms: _108  and  _109
REMARK   45  A    between atoms: _108  and  _111
REMARK   46  A    between atoms: _111  and  _112
REMARK   47  A    between atoms: _115  and  _117
REMARK   48  A    between atoms: _117  and  _118
REMARK   49  A    between atoms: _117  and  _120
REMARK   50  A    between atoms: _123  and  _125
REMARK   51  A    between atoms: _125  and  _126
REMARK   52  A    between atoms: _125  and  _128
REMARK   53  A    between atoms: _128  and  _129
REMARK   54  A    between atoms: _131  and  _133
REMARK   55  A    between atoms: _133  and  _134
REMARK   56  A    between atoms: _133  and  _136
REMARK   57  A    between atoms: _136  and  _137
REMARK   58  A    between atoms: _140  and  _142
REMARK   59  A    between atoms: _142  and  _143
REMARK   60  A    between atoms: _142  and  _145
REMARK   61  A    between atoms: _145  and  _146
REMARK   62  A    between atoms: _152  and  _154
REMARK   63  A    between atoms: _154  and  _155
REMARK   64  A    between atoms: _154  and  _157
REMARK   65  A    between atoms: _157  and  _158
REMARK   66  A    between atoms: _163  and  _165
REMARK   67  A    between atoms: _165  and  _166
REMARK   68  A    between atoms: _165  and  _168
REMARK   69  A    between atoms: _168  and  _169
REMARK   70  A    between atoms: _169  and  _170
REMARK   71  A    between atoms: _175  and  _177
REMARK   72  A    between atoms: _177  and  _178
REMARK   73  A    between atoms: _177  and  _180
REMARK   74  A    between atoms: _180  and  _181
REMARK   75  A    between atoms: _186  and  _187
REMARK   76  A    between atoms: _189  and  _191
REMARK   77  A    between atoms: _191  and  _192
REMARK   78  A    between atoms: _191  and  _194
REMARK   79  A    between atoms: _194  and  _195
REMARK   80  A    between atoms: _200  and  _202
REMARK   81  A    between atoms: _202  and  _203
REMARK   82  A    between atoms: _202  and  _205
REMARK   83  A    between atoms: _205  and  _206
REMARK   84  A    between atoms: _212  and  _214
REMARK   85  A    between atoms: _214  and  _215
REMARK   86  A    between atoms: _217  and  _219
REMARK   87  A    between atoms: _219  and  _220
REMARK   88  A    between atoms: _219  and  _222
REMARK   89  A    between atoms: _225  and  _227
REMARK   90  A    between atoms: _227  and  _228
REMARK   91  A    between atoms: _227  and  _230
REMARK   92  A    between atoms: _230  and  _231
REMARK   93  A    between atoms: _234  and  _236
REMARK   94  A    between atoms: _236  and  _237
REMARK   95  A    between atoms: _236  and  _239
REMARK   96  A    between atoms: _242  and  _244
REMARK   97  A    between atoms: _244  and  _245
REMARK   98  A    between atoms: _244  and  _247
REMARK   99  A    between atoms: _250  and  _252
REMARK  100  A    between atoms: _252  and  _253
REMARK  101  A    between atoms: _252  and  _255
REMARK  102  A    between atoms: _255  and  _256
REMARK  103  A    between atoms: _259  and  _261
REMARK  104  A    between atoms: _261  and  _262
REMARK  105  A    between atoms: _261  and  _264
REMARK  106  A    between atoms: _264  and  _265
REMARK  107  A    between atoms: _268  and  _270
REMARK  108  A    between atoms: _270  and  _271
REMARK  109  A    between atoms: _270  and  _273
REMARK  110  A    between atoms: _276  and  _278
REMARK  111  A    between atoms: _278  and  _279
REMARK  112  A    between atoms: _278  and  _281
REMARK  113  A    between atoms: _281  and  _282
REMARK  114  A    between atoms: _288  and  _290
REMARK  115  A    between atoms: _290  and  _291
REMARK  116  A    between atoms: _290  and  _293
REMARK  117  A    between atoms: _293  and  _294
REMARK  118  A    between atoms: _300  and  _302
REMARK  119  A    between atoms: _302  and  _303
REMARK  120  A    between atoms: _305  and  _307
REMARK  121  A    between atoms: _307  and  _308
REMARK  122  A    between atoms: _307  and  _310
REMARK  123  A    between atoms: _310  and  _311
REMARK  124  A    between atoms: _311  and  _312
REMARK  125  A    between atoms: _315  and  _317
REMARK  126  A    between atoms: _317  and  _318
REMARK  127  A    between atoms: _317  and  _320
REMARK  128  A    between atoms: _320  and  _321
REMARK  129  A    between atoms: _321  and  _322
REMARK  130  A    between atoms: _322  and  _323
REMARK  131  A    between atoms: _323  and  _324
REMARK  132  A    between atoms: _328  and  _330
REMARK  133  A    between atoms: _330  and  _331
REMARK  134  A    between atoms: _330  and  _333
REMARK  135  A    between atoms: _333  and  _334
REMARK  136  A    between atoms: _337  and  _339
REMARK  137  A    between atoms: _339  and  _340
REMARK  138  A    between atoms: _339  and  _342
REMARK  139  A    between atoms: _342  and  _343
REMARK  140  A    between atoms: _343  and  _344
REMARK  141  A    between atoms: _349  and  _351
REMARK  142  A    between atoms: _351  and  _352
REMARK  143  A    between atoms: _351  and  _354
REMARK  144  A    between atoms: _354  and  _355
REMARK  145  A    between atoms: _358  and  _360
REMARK  146  A    between atoms: _360  and  _361
REMARK  147  A    between atoms: _363  and  _365
REMARK  148  A    between atoms: _365  and  _366
REMARK  149  A    between atoms: _365  and  _368
REMARK  150  A    between atoms: _372  and  _373
REMARK  151  A    between atoms: _378  and  _380
REMARK  152  A    between atoms: _380  and  _381
REMARK  153  A    between atoms: _380  and  _383
REMARK  154  A    between atoms: _383  and  _384
REMARK  155  A    between atoms: _387  and  _389
REMARK  156  A    between atoms: _389  and  _390
REMARK  157  A    between atoms: _389  and  _392
REMARK  158  A    between atoms: _395  and  _397
REMARK  159  A    between atoms: _397  and  _398
REMARK  160  A    between atoms: _397  and  _400
REMARK  161  A    between atoms: _400  and  _401
REMARK  162  A    between atoms: _401  and  _402
REMARK  163  A    between atoms: _402  and  _403
REMARK  164  A    between atoms: _412  and  _414
REMARK  165  A    between atoms: _414  and  _415
REMARK  166  A    between atoms: _414  and  _417
REMARK  167  A    between atoms: _417  and  _418
REMARK  168  A    between atoms: _421  and  _423
REMARK  169  A    between atoms: _423  and  _424
REMARK  170  A    between atoms: _427  and  _429
REMARK  171  A    between atoms: _429  and  _430
REMARK  172  A    between atoms: _429  and  _432
REMARK  173  A    between atoms: _432  and  _433
REMARK  174  A    between atoms: _433  and  _434
REMARK  175  A    between atoms: _436  and  _438
REMARK  176  A    between atoms: _438  and  _439
REMARK  177  A    between atoms: _438  and  _441
REMARK  178  A    between atoms: _441  and  _442
REMARK  179  A    between atoms: _444  and  _446
REMARK  180  A    between atoms: _446  and  _447
REMARK  181  A    between atoms: _446  and  _449
REMARK  182  A    between atoms: _449  and  _450
REMARK  183  A    between atoms: _452  and  _454
REMARK  184  A    between atoms: _454  and  _455
REMARK  185  A    between atoms: _454  and  _457
REMARK  186  A    between atoms: _457  and  _458
REMARK  187  A    between atoms: _458  and  _459
REMARK  188  A    between atoms: _459  and  _460
REMARK  189  A    between atoms: _469  and  _471
REMARK  190  A    between atoms: _471  and  _472
REMARK  191  A    between atoms: _471  and  _474
REMARK  192  A    between atoms: _474  and  _475
REMARK  193  A    between atoms: _480  and  _482
REMARK  194  A    between atoms: _482  and  _483
REMARK  195  A    between atoms: _482  and  _485
REMARK  196  A    between atoms: _485  and  _486
REMARK  197  A    between atoms: _486  and  _487
REMARK  198  A    between atoms: _487  and  _488
REMARK  199  A    between atoms: _497  and  _499
REMARK  200  A    between atoms: _499  and  _500
REMARK  201  A    between atoms: _499  and  _502
REMARK  202  A    between atoms: _502  and  _503
REMARK  203  A    between atoms: _503  and  _504
REMARK  204  A    between atoms: _504  and  _505
REMARK  205  A    between atoms: _514  and  _516
REMARK  206  A    between atoms: _516  and  _517
REMARK  207  A    between atoms: _516  and  _519
REMARK  208  A    between atoms: _519  and  _520
REMARK  209  A    between atoms: _523  and  _525
REMARK  210  A    between atoms: _525  and  _526
REMARK  211  A    between atoms: _525  and  _528
REMARK  212  A    between atoms: _528  and  _529
REMARK                            x       y       z     vdW  Elec       q    Type
REMARK                         _______ _______ _______ _____ _____    ______ ____
ROOT
ATOM      1  O   HOH     1      22.605   8.435  -3.523  0.00  0.00    +0.000 OA
ENDROOT
TORSDOF 0
REMARK  Name = ../refined-set-2016/3ivc/3ivc_pocket.pdb
REMARK  212 active torsions:
REMARK  status: ('A' for Active; 'I' for Inactive)
REMARK    1  A    between atoms: _1  and  _3
REMARK    2  A    between atoms: _3  and  _4
REMARK    3  A    between atoms: _3  and  _6
REMARK    4  A    between atoms: _10  and  _11
REMARK    5  A    between atoms: _16  and  _18
REMARK    6  A    between atoms: _18  and  _19
REMARK    7  A    between atoms: _18  and  _21
REMARK    8  A    between atoms: _21  and  _22
REMARK    9  A    between atoms: _25  and  _27
REMARK   10  A    between atoms: _27  and  _28
REMARK   11  A    between atoms: _27  and  _30
REMARK   12  A    between atoms: _30  and  _31
REMARK   13  A    between atoms: _31  and  _32
REMARK   14  A    between atoms: _34  and  _36
REMARK   15  A    between atoms: _36  and  _37
REMARK   16  A    between atoms: _39  and  _41
REMARK   17  A    between atoms: _41  and  _42
REMARK   18  A    between atoms: _45  and  _47
REMARK   19  A    between atoms: _47  and  _48
REMARK   20  A    between atoms: _47  and  _50
REMARK   21  A    between atoms: _50  and  _51
REMARK   22  A    between atoms: _54  and  _56
REMARK   23  A    between atoms: _56  and  _57
REMARK   24  A    between atoms: _56  and  _59
REMARK   25  A    between atoms: _59  and  _60
REMARK   26  A    between atoms: _65  and  _67
REMARK   27  A    between atoms: _67  and  _68
REMARK   28  A    between atoms: _67  and  _70
REMARK   29  A    between atoms: _70  and  _71
REMARK   30  A    between atoms: _71  and  _72
REMARK   31  A    between atoms: _75  and  _77
REMARK   32  A    between atoms: _77  and  _78
REMARK   33  A    between atoms: _80  and  _82
REMARK   34  A    between atoms: _82  and  _83
REMARK   35  A    between atoms: _82  and  _85
REMARK   36  A    between atoms: _85  and  _86
REMARK   37  A    between atoms: _91  and  _93
REMARK   38  A    between atoms: _93  and  _94
REMARK   39  A    between atoms: _93  and  _96
REMARK   40  A    between atoms: _96  and  _97
REMARK   41  A    between atoms: _100  and  _102
REMARK   42  A    between atoms: _102  and  _103
REMARK   43  A    between atoms: _106  and  _108
REMARK   44  A    between atoms: _108  and  _109
REMARK   45  A    between atoms: _108  and  _111
REMARK   46  A    between atoms: _111  and  _112
REMARK   47  A    between atoms: _115  and  _117
REMARK   48  A    between atoms: _117  and  _118
REMARK   49  A    between atoms: _117  and  _120
REMARK   50  A    between atoms: _123  and  _125
REMARK   51  A    between atoms: _125  and  _126
REMARK   52  A    between atoms: _125  and  _128
REMARK   53  A    between atoms: _128  and  _129
REMARK   54  A    between atoms: _131  and  _133
REMARK   55  A    between atoms: _133  and  _134
REMARK   56  A    between atoms: _133  and  _136
REMARK   57  A    between atoms: _136  and  _137
REMARK   58  A    between atoms: _140  and  _142
REMARK   59  A    between atoms: _142  and  _143
REMARK   60  A    between atoms: _142  and  _145
REMARK   61  A    between atoms: _145  and  _146
REMARK   62  A    between atoms: _152  and  _154
REMARK   63  A    between atoms: _154  and  _155
REMARK   64  A    between atoms: _154  and  _157
REMARK   65  A    between atoms: _157  and  _158
REMARK   66  A    between atoms: _163  and  _165
REMARK   67  A    between atoms: _165  and  _166
REMARK   68  A    between atoms: _165  and  _168
REMARK   69  A    between atoms: _168  and  _169
REMARK   70  A    between atoms: _169  and  _170
REMARK   71  A    between atoms: _175  and  _177
REMARK   72  A    between atoms: _177  and  _178
REMARK   73  A    between atoms: _177  and  _180
REMARK   74  A    between atoms: _180  and  _181
REMARK   75  A    between atoms: _186  and  _187
REMARK   76  A    between atoms: _189  and  _191
REMARK   77  A    between atoms: _191  and  _192
REMARK   78  A    between atoms: _191  and  _194
REMARK   79  A    between atoms: _194  and  _195
REMARK   80  A    between atoms: _200  and  _202
REMARK   81  A    between atoms: _202  and  _203
REMARK   82  A    between atoms: _202  and  _205
REMARK   83  A    between atoms: _205  and  _206
REMARK   84  A    between atoms: _212  and  _214
REMARK   85  A    between atoms: _214  and  _215
REMARK   86  A    between atoms: _217  and  _219
REMARK   87  A    between atoms: _219  and  _220
REMARK   88  A    between atoms: _219  and  _222
REMARK   89  A    between atoms: _225  and  _227
REMARK   90  A    between atoms: _227  and  _228
REMARK   91  A    between atoms: _227  and  _230
REMARK   92  A    between atoms: _230  and  _231
REMARK   93  A    between atoms: _234  and  _236
REMARK   94  A    between atoms: _236  and  _237
REMARK   95  A    between atoms: _236  and  _239
REMARK   96  A    between atoms: _242  and  _244
REMARK   97  A    between atoms: _244  and  _245
REMARK   98  A    between atoms: _244  and  _247
REMARK   99  A    between atoms: _250  and  _252
REMARK  100  A    between atoms: _252  and  _253
REMARK  101  A    between atoms: _252  and  _255
REMARK  102  A    between atoms: _255  and  _256
REMARK  103  A    between atoms: _259  and  _261
REMARK  104  A    between atoms: _261  and  _262
REMARK  105  A    between atoms: _261  and  _264
REMARK  106  A    between atoms: _264  and  _265
REMARK  107  A    between atoms: _268  and  _270
REMARK  108  A    between atoms: _270  and  _271
REMARK  109  A    between atoms: _270  and  _273
REMARK  110  A    between atoms: _276  and  _278
REMARK  111  A    between atoms: _278  and  _279
REMARK  112  A    between atoms: _278  and  _281
REMARK  113  A    between atoms: _281  and  _282
REMARK  114  A    between atoms: _288  and  _290
REMARK  115  A    between atoms: _290  and  _291
REMARK  116  A    between atoms: _290  and  _293
REMARK  117  A    between atoms: _293  and  _294
REMARK  118  A    between atoms: _300  and  _302
REMARK  119  A    between atoms: _302  and  _303
REMARK  120  A    between atoms: _305  and  _307
REMARK  121  A    between atoms: _307  and  _308
REMARK  122  A    between atoms: _307  and  _310
REMARK  123  A    between atoms: _310  and  _311
REMARK  124  A    between atoms: _311  and  _312
REMARK  125  A    between atoms: _315  and  _317
REMARK  126  A    between atoms: _317  and  _318
REMARK  127  A    between atoms: _317  and  _320
REMARK  128  A    between atoms: _320  and  _321
REMARK  129  A    between atoms: _321  and  _322
REMARK  130  A    between atoms: _322  and  _323
REMARK  131  A    between atoms: _323  and  _324
REMARK  132  A    between atoms: _328  and  _330
REMARK  133  A    between atoms: _330  and  _331
REMARK  134  A    between atoms: _330  and  _333
REMARK  135  A    between atoms: _333  and  _334
REMARK  136  A    between atoms: _337  and  _339
REMARK  137  A    between atoms: _339  and  _340
REMARK  138  A    between atoms: _339  and  _342
REMARK  139  A    between atoms: _342  and  _343
REMARK  140  A    between atoms: _343  and  _344
REMARK  141  A    between atoms: _349  and  _351
REMARK  142  A    between atoms: _351  and  _352
REMARK  143  A    between atoms: _351  and  _354
REMARK  144  A    between atoms: _354  and  _355
REMARK  145  A    between atoms: _358  and  _360
REMARK  146  A    between atoms: _360  and  _361
REMARK  147  A    between atoms: _363  and  _365
REMARK  148  A    between atoms: _365  and  _366
REMARK  149  A    between atoms: _365  and  _368
REMARK  150  A    between atoms: _372  and  _373
REMARK  151  A    between atoms: _378  and  _380
REMARK  152  A    between atoms: _380  and  _381
REMARK  153  A    between atoms: _380  and  _383
REMARK  154  A    between atoms: _383  and  _384
REMARK  155  A    between atoms: _387  and  _389
REMARK  156  A    between atoms: _389  and  _390
REMARK  157  A    between atoms: _389  and  _392
REMARK  158  A    between atoms: _395  and  _397
REMARK  159  A    between atoms: _397  and  _398
REMARK  160  A    between atoms: _397  and  _400
REMARK  161  A    between atoms: _400  and  _401
REMARK  162  A    between atoms: _401  and  _402
REMARK  163  A    between atoms: _402  and  _403
REMARK  164  A    between atoms: _412  and  _414
REMARK  165  A    between atoms: _414  and  _415
REMARK  166  A    between atoms: _414  and  _417
REMARK  167  A    between atoms: _417  and  _418
REMARK  168  A    between atoms: _421  and  _423
REMARK  169  A    between atoms: _423  and  _424
REMARK  170  A    between atoms: _427  and  _429
REMARK  171  A    between atoms: _429  and  _430
REMARK  172  A    between atoms: _429  and  _432
REMARK  173  A    between atoms: _432  and  _433
REMARK  174  A    between atoms: _433  and  _434
REMARK  175  A    between atoms: _436  and  _438
REMARK  176  A    between atoms: _438  and  _439
REMARK  177  A    between atoms: _438  and  _441
REMARK  178  A    between atoms: _441  and  _442
REMARK  179  A    between atoms: _444  and  _446
REMARK  180  A    between atoms: _446  and  _447
REMARK  181  A    between atoms: _446  and  _449
REMARK  182  A    between atoms: _449  and  _450
REMARK  183  A    between atoms: _452  and  _454
REMARK  184  A    between atoms: _454  and  _455
REMARK  185  A    between atoms: _454  and  _457
REMARK  186  A    between atoms: _457  and  _458
REMARK  187  A    between atoms: _458  and  _459
REMARK  188  A    between atoms: _459  and  _460
REMARK  189  A    between atoms: _469  and  _471
REMARK  190  A    between atoms: _471  and  _472
REMARK  191  A    between atoms: _471  and  _474
REMARK  192  A    between atoms: _474  and  _475
REMARK  193  A    between atoms: _480  and  _482
REMARK  194  A    between atoms: _482  and  _483
REMARK  195  A    between atoms: _482  and  _485
REMARK  196  A    between atoms: _485  and  _486
REMARK  197  A    between atoms: _486  and  _487
REMARK  198  A    between atoms: _487  and  _488
REMARK  199  A    between atoms: _497  and  _499
REMARK  200  A    between atoms: _499  and  _500
REMARK  201  A    between atoms: _499  and  _502
REMARK  202  A    between atoms: _502  and  _503
REMARK  203  A    between atoms: _503  and  _504
REMARK  204  A    between atoms: _504  and  _505
REMARK  205  A    between atoms: _514  and  _516
REMARK  206  A    between atoms: _516  and  _517
REMARK  207  A    between atoms: _516  and  _519
REMARK  208  A    between atoms: _519  and  _520
REMARK  209  A    between atoms: _523  and  _525
REMARK  210  A    between atoms: _525  and  _526
REMARK  211  A    between atoms: _525  and  _528
REMARK  212  A    between atoms: _528  and  _529
REMARK                            x       y       z     vdW  Elec       q    Type
REMARK                         _______ _______ _______ _____ _____    ______ ____
ROOT
ATOM      1  O   HOH     1      22.628   9.651   0.737  0.00  0.00    +0.000 OA
ENDROOT
TORSDOF 0
REMARK  Name = ../refined-set-2016/3ivc/3ivc_pocket.pdb
REMARK  212 active torsions:
REMARK  status: ('A' for Active; 'I' for Inactive)
REMARK    1  A    between atoms: _1  and  _3
REMARK    2  A    between atoms: _3  and  _4
REMARK    3  A    between atoms: _3  and  _6
REMARK    4  A    between atoms: _10  and  _11
REMARK    5  A    between atoms: _16  and  _18
REMARK    6  A    between atoms: _18  and  _19
REMARK    7  A    between atoms: _18  and  _21
REMARK    8  A    between atoms: _21  and  _22
REMARK    9  A    between atoms: _25  and  _27
REMARK   10  A    between atoms: _27  and  _28
REMARK   11  A    between atoms: _27  and  _30
REMARK   12  A    between atoms: _30  and  _31
REMARK   13  A    between atoms: _31  and  _32
REMARK   14  A    between atoms: _34  and  _36
REMARK   15  A    between atoms: _36  and  _37
REMARK   16  A    between atoms: _39  and  _41
REMARK   17  A    between atoms: _41  and  _42
REMARK   18  A    between atoms: _45  and  _47
REMARK   19  A    between atoms: _47  and  _48
REMARK   20  A    between atoms: _47  and  _50
REMARK   21  A    between atoms: _50  and  _51
REMARK   22  A    between atoms: _54  and  _56
REMARK   23  A    between atoms: _56  and  _57
REMARK   24  A    between atoms: _56  and  _59
REMARK   25  A    between atoms: _59  and  _60
REMARK   26  A    between atoms: _65  and  _67
REMARK   27  A    between atoms: _67  and  _68
REMARK   28  A    between atoms: _67  and  _70
REMARK   29  A    between atoms: _70  and  _71
REMARK   30  A    between atoms: _71  and  _72
REMARK   31  A    between atoms: _75  and  _77
REMARK   32  A    between atoms: _77  and  _78
REMARK   33  A    between atoms: _80  and  _82
REMARK   34  A    between atoms: _82  and  _83
REMARK   35  A    between atoms: _82  and  _85
REMARK   36  A    between atoms: _85  and  _86
REMARK   37  A    between atoms: _91  and  _93
REMARK   38  A    between atoms: _93  and  _94
REMARK   39  A    between atoms: _93  and  _96
REMARK   40  A    between atoms: _96  and  _97
REMARK   41  A    between atoms: _100  and  _102
REMARK   42  A    between atoms: _102  and  _103
REMARK   43  A    between atoms: _106  and  _108
REMARK   44  A    between atoms: _108  and  _109
REMARK   45  A    between atoms: _108  and  _111
REMARK   46  A    between atoms: _111  and  _112
REMARK   47  A    between atoms: _115  and  _117
REMARK   48  A    between atoms: _117  and  _118
REMARK   49  A    between atoms: _117  and  _120
REMARK   50  A    between atoms: _123  and  _125
REMARK   51  A    between atoms: _125  and  _126
REMARK   52  A    between atoms: _125  and  _128
REMARK   53  A    between atoms: _128  and  _129
REMARK   54  A    between atoms: _131  and  _133
REMARK   55  A    between atoms: _133  and  _134
REMARK   56  A    between atoms: _133  and  _136
REMARK   57  A    between atoms: _136  and  _137
REMARK   58  A    between atoms: _140  and  _142
REMARK   59  A    between atoms: _142  and  _143
REMARK   60  A    between atoms: _142  and  _145
REMARK   61  A    between atoms: _145  and  _146
REMARK   62  A    between atoms: _152  and  _154
REMARK   63  A    between atoms: _154  and  _155
REMARK   64  A    between atoms: _154  and  _157
REMARK   65  A    between atoms: _157  and  _158
REMARK   66  A    between atoms: _163  and  _165
REMARK   67  A    between atoms: _165  and  _166
REMARK   68  A    between atoms: _165  and  _168
REMARK   69  A    between atoms: _168  and  _169
REMARK   70  A    between atoms: _169  and  _170
REMARK   71  A    between atoms: _175  and  _177
REMARK   72  A    between atoms: _177  and  _178
REMARK   73  A    between atoms: _177  and  _180
REMARK   74  A    between atoms: _180  and  _181
REMARK   75  A    between atoms: _186  and  _187
REMARK   76  A    between atoms: _189  and  _191
REMARK   77  A    between atoms: _191  and  _192
REMARK   78  A    between atoms: _191  and  _194
REMARK   79  A    between atoms: _194  and  _195
REMARK   80  A    between atoms: _200  and  _202
REMARK   81  A    between atoms: _202  and  _203
REMARK   82  A    between atoms: _202  and  _205
REMARK   83  A    between atoms: _205  and  _206
REMARK   84  A    between atoms: _212  and  _214
REMARK   85  A    between atoms: _214  and  _215
REMARK   86  A    between atoms: _217  and  _219
REMARK   87  A    between atoms: _219  and  _220
REMARK   88  A    between atoms: _219  and  _222
REMARK   89  A    between atoms: _225  and  _227
REMARK   90  A    between atoms: _227  and  _228
REMARK   91  A    between atoms: _227  and  _230
REMARK   92  A    between atoms: _230  and  _231
REMARK   93  A    between atoms: _234  and  _236
REMARK   94  A    between atoms: _236  and  _237
REMARK   95  A    between atoms: _236  and  _239
REMARK   96  A    between atoms: _242  and  _244
REMARK   97  A    between atoms: _244  and  _245
REMARK   98  A    between atoms: _244  and  _247
REMARK   99  A    between atoms: _250  and  _252
REMARK  100  A    between atoms: _252  and  _253
REMARK  101  A    between atoms: _252  and  _255
REMARK  102  A    between atoms: _255  and  _256
REMARK  103  A    between atoms: _259  and  _261
REMARK  104  A    between atoms: _261  and  _262
REMARK  105  A    between atoms: _261  and  _264
REMARK  106  A    between atoms: _264  and  _265
REMARK  107  A    between atoms: _268  and  _270
REMARK  108  A    between atoms: _270  and  _271
REMARK  109  A    between atoms: _270  and  _273
REMARK  110  A    between atoms: _276  and  _278
REMARK  111  A    between atoms: _278  and  _279
REMARK  112  A    between atoms: _278  and  _281
REMARK  113  A    between atoms: _281  and  _282
REMARK  114  A    between atoms: _288  and  _290
REMARK  115  A    between atoms: _290  and  _291
REMARK  116  A    between atoms: _290  and  _293
REMARK  117  A    between atoms: _293  and  _294
REMARK  118  A    between atoms: _300  and  _302
REMARK  119  A    between atoms: _302  and  _303
REMARK  120  A    between atoms: _305  and  _307
REMARK  121  A    between atoms: _307  and  _308
REMARK  122  A    between atoms: _307  and  _310
REMARK  123  A    between atoms: _310  and  _311
REMARK  124  A    between atoms: _311  and  _312
REMARK  125  A    between atoms: _315  and  _317
REMARK  126  A    between atoms: _317  and  _318
REMARK  127  A    between atoms: _317  and  _320
REMARK  128  A    between atoms: _320  and  _321
REMARK  129  A    between atoms: _321  and  _322
REMARK  130  A    between atoms: _322  and  _323
REMARK  131  A    between atoms: _323  and  _324
REMARK  132  A    between atoms: _328  and  _330
REMARK  133  A    between atoms: _330  and  _331
REMARK  134  A    between atoms: _330  and  _333
REMARK  135  A    between atoms: _333  and  _334
REMARK  136  A    between atoms: _337  and  _339
REMARK  137  A    between atoms: _339  and  _340
REMARK  138  A    between atoms: _339  and  _342
REMARK  139  A    between atoms: _342  and  _343
REMARK  140  A    between atoms: _343  and  _344
REMARK  141  A    between atoms: _349  and  _351
REMARK  142  A    between atoms: _351  and  _352
REMARK  143  A    between atoms: _351  and  _354
REMARK  144  A    between atoms: _354  and  _355
REMARK  145  A    between atoms: _358  and  _360
REMARK  146  A    between atoms: _360  and  _361
REMARK  147  A    between atoms: _363  and  _365
REMARK  148  A    between atoms: _365  and  _366
REMARK  149  A    between atoms: _365  and  _368
REMARK  150  A    between atoms: _372  and  _373
REMARK  151  A    between atoms: _378  and  _380
REMARK  152  A    between atoms: _380  and  _381
REMARK  153  A    between atoms: _380  and  _383
REMARK  154  A    between atoms: _383  and  _384
REMARK  155  A    between atoms: _387  and  _389
REMARK  156  A    between atoms: _389  and  _390
REMARK  157  A    between atoms: _389  and  _392
REMARK  158  A    between atoms: _395  and  _397
REMARK  159  A    between atoms: _397  and  _398
REMARK  160  A    between atoms: _397  and  _400
REMARK  161  A    between atoms: _400  and  _401
REMARK  162  A    between atoms: _401  and  _402
REMARK  163  A    between atoms: _402  and  _403
REMARK  164  A    between atoms: _412  and  _414
REMARK  165  A    between atoms: _414  and  _415
REMARK  166  A    between atoms: _414  and  _417
REMARK  167  A    between atoms: _417  and  _418
REMARK  168  A    between atoms: _421  and  _423
REMARK  169  A    between atoms: _423  and  _424
REMARK  170  A    between atoms: _427  and  _429
REMARK  171  A    between atoms: _429  and  _430
REMARK  172  A    between atoms: _429  and  _432
REMARK  173  A    between atoms: _432  and  _433
REMARK  174  A    between atoms: _433  and  _434
REMARK  175  A    between atoms: _436  and  _438
REMARK  176  A    between atoms: _438  and  _439
REMARK  177  A    between atoms: _438  and  _441
REMARK  178  A    between atoms: _441  and  _442
REMARK  179  A    between atoms: _444  and  _446
REMARK  180  A    between atoms: _446  and  _447
REMARK  181  A    between atoms: _446  and  _449
REMARK  182  A    between atoms: _449  and  _450
REMARK  183  A    between atoms: _452  and  _454
REMARK  184  A    between atoms: _454  and  _455
REMARK  185  A    between atoms: _454  and  _457
REMARK  186  A    between atoms: _457  and  _458
REMARK  187  A    between atoms: _458  and  _459
REMARK  188  A    between atoms: _459  and  _460
REMARK  189  A    between atoms: _469  and  _471
REMARK  190  A    between atoms: _471  and  _472
REMARK  191  A    between atoms: _471  and  _474
REMARK  192  A    between atoms: _474  and  _475
REMARK  193  A    between atoms: _480  and  _482
REMARK  194  A    between atoms: _482  and  _483
REMARK  195  A    between atoms: _482  and  _485
REMARK  196  A    between atoms: _485  and  _486
REMARK  197  A    between atoms: _486  and  _487
REMARK  198  A    between atoms: _487  and  _488
REMARK  199  A    between atoms: _497  and  _499
REMARK  200  A    between atoms: _499  and  _500
REMARK  201  A    between atoms: _499  and  _502
REMARK  202  A    between atoms: _502  and  _503
REMARK  203  A    between atoms: _503  and  _504
REMARK  204  A    between atoms: _504  and  _505
REMARK  205  A    between atoms: _514  and  _516
REMARK  206  A    between atoms: _516  and  _517
REMARK  207  A    between atoms: _516  and  _519
REMARK  208  A    between atoms: _519  and  _520
REMARK  209  A    between atoms: _523  and  _525
REMARK  210  A    between atoms: _525  and  _526
REMARK  211  A    between atoms: _525  and  _528
REMARK  212  A    between atoms: _528  and  _529
REMARK                            x       y       z     vdW  Elec       q    Type
REMARK                         _______ _______ _______ _____ _____    ______ ____
ROOT
ATOM      1  O   HOH     1      13.898  11.887  10.785  0.00  0.00    +0.000 OA
ENDROOT
TORSDOF 0
REMARK  Name = ../refined-set-2016/3ivc/3ivc_pocket.pdb
REMARK  212 active torsions:
REMARK  status: ('A' for Active; 'I' for Inactive)
REMARK    1  A    between atoms: _1  and  _3
REMARK    2  A    between atoms: _3  and  _4
REMARK    3  A    between atoms: _3  and  _6
REMARK    4  A    between atoms: _10  and  _11
REMARK    5  A    between atoms: _16  and  _18
REMARK    6  A    between atoms: _18  and  _19
REMARK    7  A    between atoms: _18  and  _21
REMARK    8  A    between atoms: _21  and  _22
REMARK    9  A    between atoms: _25  and  _27
REMARK   10  A    between atoms: _27  and  _28
REMARK   11  A    between atoms: _27  and  _30
REMARK   12  A    between atoms: _30  and  _31
REMARK   13  A    between atoms: _31  and  _32
REMARK   14  A    between atoms: _34  and  _36
REMARK   15  A    between atoms: _36  and  _37
REMARK   16  A    between atoms: _39  and  _41
REMARK   17  A    between atoms: _41  and  _42
REMARK   18  A    between atoms: _45  and  _47
REMARK   19  A    between atoms: _47  and  _48
REMARK   20  A    between atoms: _47  and  _50
REMARK   21  A    between atoms: _50  and  _51
REMARK   22  A    between atoms: _54  and  _56
REMARK   23  A    between atoms: _56  and  _57
REMARK   24  A    between atoms: _56  and  _59
REMARK   25  A    between atoms: _59  and  _60
REMARK   26  A    between atoms: _65  and  _67
REMARK   27  A    between atoms: _67  and  _68
REMARK   28  A    between atoms: _67  and  _70
REMARK   29  A    between atoms: _70  and  _71
REMARK   30  A    between atoms: _71  and  _72
REMARK   31  A    between atoms: _75  and  _77
REMARK   32  A    between atoms: _77  and  _78
REMARK   33  A    between atoms: _80  and  _82
REMARK   34  A    between atoms: _82  and  _83
REMARK   35  A    between atoms: _82  and  _85
REMARK   36  A    between atoms: _85  and  _86
REMARK   37  A    between atoms: _91  and  _93
REMARK   38  A    between atoms: _93  and  _94
REMARK   39  A    between atoms: _93  and  _96
REMARK   40  A    between atoms: _96  and  _97
REMARK   41  A    between atoms: _100  and  _102
REMARK   42  A    between atoms: _102  and  _103
REMARK   43  A    between atoms: _106  and  _108
REMARK   44  A    between atoms: _108  and  _109
REMARK   45  A    between atoms: _108  and  _111
REMARK   46  A    between atoms: _111  and  _112
REMARK   47  A    between atoms: _115  and  _117
REMARK   48  A    between atoms: _117  and  _118
REMARK   49  A    between atoms: _117  and  _120
REMARK   50  A    between atoms: _123  and  _125
REMARK   51  A    between atoms: _125  and  _126
REMARK   52  A    between atoms: _125  and  _128
REMARK   53  A    between atoms: _128  and  _129
REMARK   54  A    between atoms: _131  and  _133
REMARK   55  A    between atoms: _133  and  _134
REMARK   56  A    between atoms: _133  and  _136
REMARK   57  A    between atoms: _136  and  _137
REMARK   58  A    between atoms: _140  and  _142
REMARK   59  A    between atoms: _142  and  _143
REMARK   60  A    between atoms: _142  and  _145
REMARK   61  A    between atoms: _145  and  _146
REMARK   62  A    between atoms: _152  and  _154
REMARK   63  A    between atoms: _154  and  _155
REMARK   64  A    between atoms: _154  and  _157
REMARK   65  A    between atoms: _157  and  _158
REMARK   66  A    between atoms: _163  and  _165
REMARK   67  A    between atoms: _165  and  _166
REMARK   68  A    between atoms: _165  and  _168
REMARK   69  A    between atoms: _168  and  _169
REMARK   70  A    between atoms: _169  and  _170
REMARK   71  A    between atoms: _175  and  _177
REMARK   72  A    between atoms: _177  and  _178
REMARK   73  A    between atoms: _177  and  _180
REMARK   74  A    between atoms: _180  and  _181
REMARK   75  A    between atoms: _186  and  _187
REMARK   76  A    between atoms: _189  and  _191
REMARK   77  A    between atoms: _191  and  _192
REMARK   78  A    between atoms: _191  and  _194
REMARK   79  A    between atoms: _194  and  _195
REMARK   80  A    between atoms: _200  and  _202
REMARK   81  A    between atoms: _202  and  _203
REMARK   82  A    between atoms: _202  and  _205
REMARK   83  A    between atoms: _205  and  _206
REMARK   84  A    between atoms: _212  and  _214
REMARK   85  A    between atoms: _214  and  _215
REMARK   86  A    between atoms: _217  and  _219
REMARK   87  A    between atoms: _219  and  _220
REMARK   88  A    between atoms: _219  and  _222
REMARK   89  A    between atoms: _225  and  _227
REMARK   90  A    between atoms: _227  and  _228
REMARK   91  A    between atoms: _227  and  _230
REMARK   92  A    between atoms: _230  and  _231
REMARK   93  A    between atoms: _234  and  _236
REMARK   94  A    between atoms: _236  and  _237
REMARK   95  A    between atoms: _236  and  _239
REMARK   96  A    between atoms: _242  and  _244
REMARK   97  A    between atoms: _244  and  _245
REMARK   98  A    between atoms: _244  and  _247
REMARK   99  A    between atoms: _250  and  _252
REMARK  100  A    between atoms: _252  and  _253
REMARK  101  A    between atoms: _252  and  _255
REMARK  102  A    between atoms: _255  and  _256
REMARK  103  A    between atoms: _259  and  _261
REMARK  104  A    between atoms: _261  and  _262
REMARK  105  A    between atoms: _261  and  _264
REMARK  106  A    between atoms: _264  and  _265
REMARK  107  A    between atoms: _268  and  _270
REMARK  108  A    between atoms: _270  and  _271
REMARK  109  A    between atoms: _270  and  _273
REMARK  110  A    between atoms: _276  and  _278
REMARK  111  A    between atoms: _278  and  _279
REMARK  112  A    between atoms: _278  and  _281
REMARK  113  A    between atoms: _281  and  _282
REMARK  114  A    between atoms: _288  and  _290
REMARK  115  A    between atoms: _290  and  _291
REMARK  116  A    between atoms: _290  and  _293
REMARK  117  A    between atoms: _293  and  _294
REMARK  118  A    between atoms: _300  and  _302
REMARK  119  A    between atoms: _302  and  _303
REMARK  120  A    between atoms: _305  and  _307
REMARK  121  A    between atoms: _307  and  _308
REMARK  122  A    between atoms: _307  and  _310
REMARK  123  A    between atoms: _310  and  _311
REMARK  124  A    between atoms: _311  and  _312
REMARK  125  A    between atoms: _315  and  _317
REMARK  126  A    between atoms: _317  and  _318
REMARK  127  A    between atoms: _317  and  _320
REMARK  128  A    between atoms: _320  and  _321
REMARK  129  A    between atoms: _321  and  _322
REMARK  130  A    between atoms: _322  and  _323
REMARK  131  A    between atoms: _323  and  _324
REMARK  132  A    between atoms: _328  and  _330
REMARK  133  A    between atoms: _330  and  _331
REMARK  134  A    between atoms: _330  and  _333
REMARK  135  A    between atoms: _333  and  _334
REMARK  136  A    between atoms: _337  and  _339
REMARK  137  A    between atoms: _339  and  _340
REMARK  138  A    between atoms: _339  and  _342
REMARK  139  A    between atoms: _342  and  _343
REMARK  140  A    between atoms: _343  and  _344
REMARK  141  A    between atoms: _349  and  _351
REMARK  142  A    between atoms: _351  and  _352
REMARK  143  A    between atoms: _351  and  _354
REMARK  144  A    between atoms: _354  and  _355
REMARK  145  A    between atoms: _358  and  _360
REMARK  146  A    between atoms: _360  and  _361
REMARK  147  A    between atoms: _363  and  _365
REMARK  148  A    between atoms: _365  and  _366
REMARK  149  A    between atoms: _365  and  _368
REMARK  150  A    between atoms: _372  and  _373
REMARK  151  A    between atoms: _378  and  _380
REMARK  152  A    between atoms: _380  and  _381
REMARK  153  A    between atoms: _380  and  _383
REMARK  154  A    between atoms: _383  and  _384
REMARK  155  A    between atoms: _387  and  _389
REMARK  156  A    between atoms: _389  and  _390
REMARK  157  A    between atoms: _389  and  _392
REMARK  158  A    between atoms: _395  and  _397
REMARK  159  A    between atoms: _397  and  _398
REMARK  160  A    between atoms: _397  and  _400
REMARK  161  A    between atoms: _400  and  _401
REMARK  162  A    between atoms: _401  and  _402
REMARK  163  A    between atoms: _402  and  _403
REMARK  164  A    between atoms: _412  and  _414
REMARK  165  A    between atoms: _414  and  _415
REMARK  166  A    between atoms: _414  and  _417
REMARK  167  A    between atoms: _417  and  _418
REMARK  168  A    between atoms: _421  and  _423
REMARK  169  A    between atoms: _423  and  _424
REMARK  170  A    between atoms: _427  and  _429
REMARK  171  A    between atoms: _429  and  _430
REMARK  172  A    between atoms: _429  and  _432
REMARK  173  A    between atoms: _432  and  _433
REMARK  174  A    between atoms: _433  and  _434
REMARK  175  A    between atoms: _436  and  _438
REMARK  176  A    between atoms: _438  and  _439
REMARK  177  A    between atoms: _438  and  _441
REMARK  178  A    between atoms: _441  and  _442
REMARK  179  A    between atoms: _444  and  _446
REMARK  180  A    between atoms: _446  and  _447
REMARK  181  A    between atoms: _446  and  _449
REMARK  182  A    between atoms: _449  and  _450
REMARK  183  A    between atoms: _452  and  _454
REMARK  184  A    between atoms: _454  and  _455
REMARK  185  A    between atoms: _454  and  _457
REMARK  186  A    between atoms: _457  and  _458
REMARK  187  A    between atoms: _458  and  _459
REMARK  188  A    between atoms: _459  and  _460
REMARK  189  A    between atoms: _469  and  _471
REMARK  190  A    between atoms: _471  and  _472
REMARK  191  A    between atoms: _471  and  _474
REMARK  192  A    between atoms: _474  and  _475
REMARK  193  A    between atoms: _480  and  _482
REMARK  194  A    between atoms: _482  and  _483
REMARK  195  A    between atoms: _482  and  _485
REMARK  196  A    between atoms: _485  and  _486
REMARK  197  A    between atoms: _486  and  _487
REMARK  198  A    between atoms: _487  and  _488
REMARK  199  A    between atoms: _497  and  _499
REMARK  200  A    between atoms: _499  and  _500
REMARK  201  A    between atoms: _499  and  _502
REMARK  202  A    between atoms: _502  and  _503
REMARK  203  A    between atoms: _503  and  _504
REMARK  204  A    between atoms: _504  and  _505
REMARK  205  A    between atoms: _514  and  _516
REMARK  206  A    between atoms: _516  and  _517
REMARK  207  A    between atoms: _516  and  _519
REMARK  208  A    between atoms: _519  and  _520
REMARK  209  A    between atoms: _523  and  _525
REMARK  210  A    between atoms: _525  and  _526
REMARK  211  A    between atoms: _525  and  _528
REMARK  212  A    between atoms: _528  and  _529
REMARK                            x       y       z     vdW  Elec       q    Type
REMARK                         _______ _______ _______ _____ _____    ______ ____
ROOT
ATOM      1  O   HOH     1      10.340   9.391   2.933  0.00  0.00    +0.000 OA
ENDROOT
TORSDOF 0
REMARK  Name = ../refined-set-2016/3ivc/3ivc_pocket.pdb
REMARK  212 active torsions:
REMARK  status: ('A' for Active; 'I' for Inactive)
REMARK    1  A    between atoms: _1  and  _3
REMARK    2  A    between atoms: _3  and  _4
REMARK    3  A    between atoms: _3  and  _6
REMARK    4  A    between atoms: _10  and  _11
REMARK    5  A    between atoms: _16  and  _18
REMARK    6  A    between atoms: _18  and  _19
REMARK    7  A    between atoms: _18  and  _21
REMARK    8  A    between atoms: _21  and  _22
REMARK    9  A    between atoms: _25  and  _27
REMARK   10  A    between atoms: _27  and  _28
REMARK   11  A    between atoms: _27  and  _30
REMARK   12  A    between atoms: _30  and  _31
REMARK   13  A    between atoms: _31  and  _32
REMARK   14  A    between atoms: _34  and  _36
REMARK   15  A    between atoms: _36  and  _37
REMARK   16  A    between atoms: _39  and  _41
REMARK   17  A    between atoms: _41  and  _42
REMARK   18  A    between atoms: _45  and  _47
REMARK   19  A    between atoms: _47  and  _48
REMARK   20  A    between atoms: _47  and  _50
REMARK   21  A    between atoms: _50  and  _51
REMARK   22  A    between atoms: _54  and  _56
REMARK   23  A    between atoms: _56  and  _57
REMARK   24  A    between atoms: _56  and  _59
REMARK   25  A    between atoms: _59  and  _60
REMARK   26  A    between atoms: _65  and  _67
REMARK   27  A    between atoms: _67  and  _68
REMARK   28  A    between atoms: _67  and  _70
REMARK   29  A    between atoms: _70  and  _71
REMARK   30  A    between atoms: _71  and  _72
REMARK   31  A    between atoms: _75  and  _77
REMARK   32  A    between atoms: _77  and  _78
REMARK   33  A    between atoms: _80  and  _82
REMARK   34  A    between atoms: _82  and  _83
REMARK   35  A    between atoms: _82  and  _85
REMARK   36  A    between atoms: _85  and  _86
REMARK   37  A    between atoms: _91  and  _93
REMARK   38  A    between atoms: _93  and  _94
REMARK   39  A    between atoms: _93  and  _96
REMARK   40  A    between atoms: _96  and  _97
REMARK   41  A    between atoms: _100  and  _102
REMARK   42  A    between atoms: _102  and  _103
REMARK   43  A    between atoms: _106  and  _108
REMARK   44  A    between atoms: _108  and  _109
REMARK   45  A    between atoms: _108  and  _111
REMARK   46  A    between atoms: _111  and  _112
REMARK   47  A    between atoms: _115  and  _117
REMARK   48  A    between atoms: _117  and  _118
REMARK   49  A    between atoms: _117  and  _120
REMARK   50  A    between atoms: _123  and  _125
REMARK   51  A    between atoms: _125  and  _126
REMARK   52  A    between atoms: _125  and  _128
REMARK   53  A    between atoms: _128  and  _129
REMARK   54  A    between atoms: _131  and  _133
REMARK   55  A    between atoms: _133  and  _134
REMARK   56  A    between atoms: _133  and  _136
REMARK   57  A    between atoms: _136  and  _137
REMARK   58  A    between atoms: _140  and  _142
REMARK   59  A    between atoms: _142  and  _143
REMARK   60  A    between atoms: _142  and  _145
REMARK   61  A    between atoms: _145  and  _146
REMARK   62  A    between atoms: _152  and  _154
REMARK   63  A    between atoms: _154  and  _155
REMARK   64  A    between atoms: _154  and  _157
REMARK   65  A    between atoms: _157  and  _158
REMARK   66  A    between atoms: _163  and  _165
REMARK   67  A    between atoms: _165  and  _166
REMARK   68  A    between atoms: _165  and  _168
REMARK   69  A    between atoms: _168  and  _169
REMARK   70  A    between atoms: _169  and  _170
REMARK   71  A    between atoms: _175  and  _177
REMARK   72  A    between atoms: _177  and  _178
REMARK   73  A    between atoms: _177  and  _180
REMARK   74  A    between atoms: _180  and  _181
REMARK   75  A    between atoms: _186  and  _187
REMARK   76  A    between atoms: _189  and  _191
REMARK   77  A    between atoms: _191  and  _192
REMARK   78  A    between atoms: _191  and  _194
REMARK   79  A    between atoms: _194  and  _195
REMARK   80  A    between atoms: _200  and  _202
REMARK   81  A    between atoms: _202  and  _203
REMARK   82  A    between atoms: _202  and  _205
REMARK   83  A    between atoms: _205  and  _206
REMARK   84  A    between atoms: _212  and  _214
REMARK   85  A    between atoms: _214  and  _215
REMARK   86  A    between atoms: _217  and  _219
REMARK   87  A    between atoms: _219  and  _220
REMARK   88  A    between atoms: _219  and  _222
REMARK   89  A    between atoms: _225  and  _227
REMARK   90  A    between atoms: _227  and  _228
REMARK   91  A    between atoms: _227  and  _230
REMARK   92  A    between atoms: _230  and  _231
REMARK   93  A    between atoms: _234  and  _236
REMARK   94  A    between atoms: _236  and  _237
REMARK   95  A    between atoms: _236  and  _239
REMARK   96  A    between atoms: _242  and  _244
REMARK   97  A    between atoms: _244  and  _245
REMARK   98  A    between atoms: _244  and  _247
REMARK   99  A    between atoms: _250  and  _252
REMARK  100  A    between atoms: _252  and  _253
REMARK  101  A    between atoms: _252  and  _255
REMARK  102  A    between atoms: _255  and  _256
REMARK  103  A    between atoms: _259  and  _261
REMARK  104  A    between atoms: _261  and  _262
REMARK  105  A    between atoms: _261  and  _264
REMARK  106  A    between atoms: _264  and  _265
REMARK  107  A    between atoms: _268  and  _270
REMARK  108  A    between atoms: _270  and  _271
REMARK  109  A    between atoms: _270  and  _273
REMARK  110  A    between atoms: _276  and  _278
REMARK  111  A    between atoms: _278  and  _279
REMARK  112  A    between atoms: _278  and  _281
REMARK  113  A    between atoms: _281  and  _282
REMARK  114  A    between atoms: _288  and  _290
REMARK  115  A    between atoms: _290  and  _291
REMARK  116  A    between atoms: _290  and  _293
REMARK  117  A    between atoms: _293  and  _294
REMARK  118  A    between atoms: _300  and  _302
REMARK  119  A    between atoms: _302  and  _303
REMARK  120  A    between atoms: _305  and  _307
REMARK  121  A    between atoms: _307  and  _308
REMARK  122  A    between atoms: _307  and  _310
REMARK  123  A    between atoms: _310  and  _311
REMARK  124  A    between atoms: _311  and  _312
REMARK  125  A    between atoms: _315  and  _317
REMARK  126  A    between atoms: _317  and  _318
REMARK  127  A    between atoms: _317  and  _320
REMARK  128  A    between atoms: _320  and  _321
REMARK  129  A    between atoms: _321  and  _322
REMARK  130  A    between atoms: _322  and  _323
REMARK  131  A    between atoms: _323  and  _324
REMARK  132  A    between atoms: _328  and  _330
REMARK  133  A    between atoms: _330  and  _331
REMARK  134  A    between atoms: _330  and  _333
REMARK  135  A    between atoms: _333  and  _334
REMARK  136  A    between atoms: _337  and  _339
REMARK  137  A    between atoms: _339  and  _340
REMARK  138  A    between atoms: _339  and  _342
REMARK  139  A    between atoms: _342  and  _343
REMARK  140  A    between atoms: _343  and  _344
REMARK  141  A    between atoms: _349  and  _351
REMARK  142  A    between atoms: _351  and  _352
REMARK  143  A    between atoms: _351  and  _354
REMARK  144  A    between atoms: _354  and  _355
REMARK  145  A    between atoms: _358  and  _360
REMARK  146  A    between atoms: _360  and  _361
REMARK  147  A    between atoms: _363  and  _365
REMARK  148  A    between atoms: _365  and  _366
REMARK  149  A    between atoms: _365  and  _368
REMARK  150  A    between atoms: _372  and  _373
REMARK  151  A    between atoms: _378  and  _380
REMARK  152  A    between atoms: _380  and  _381
REMARK  153  A    between atoms: _380  and  _383
REMARK  154  A    between atoms: _383  and  _384
REMARK  155  A    between atoms: _387  and  _389
REMARK  156  A    between atoms: _389  and  _390
REMARK  157  A    between atoms: _389  and  _392
REMARK  158  A    between atoms: _395  and  _397
REMARK  159  A    between atoms: _397  and  _398
REMARK  160  A    between atoms: _397  and  _400
REMARK  161  A    between atoms: _400  and  _401
REMARK  162  A    between atoms: _401  and  _402
REMARK  163  A    between atoms: _402  and  _403
REMARK  164  A    between atoms: _412  and  _414
REMARK  165  A    between atoms: _414  and  _415
REMARK  166  A    between atoms: _414  and  _417
REMARK  167  A    between atoms: _417  and  _418
REMARK  168  A    between atoms: _421  and  _423
REMARK  169  A    between atoms: _423  and  _424
REMARK  170  A    between atoms: _427  and  _429
REMARK  171  A    between atoms: _429  and  _430
REMARK  172  A    between atoms: _429  and  _432
REMARK  173  A    between atoms: _432  and  _433
REMARK  174  A    between atoms: _433  and  _434
REMARK  175  A    between atoms: _436  and  _438
REMARK  176  A    between atoms: _438  and  _439
REMARK  177  A    between atoms: _438  and  _441
REMARK  178  A    between atoms: _441  and  _442
REMARK  179  A    between atoms: _444  and  _446
REMARK  180  A    between atoms: _446  and  _447
REMARK  181  A    between atoms: _446  and  _449
REMARK  182  A    between atoms: _449  and  _450
REMARK  183  A    between atoms: _452  and  _454
REMARK  184  A    between atoms: _454  and  _455
REMARK  185  A    between atoms: _454  and  _457
REMARK  186  A    between atoms: _457  and  _458
REMARK  187  A    between atoms: _458  and  _459
REMARK  188  A    between atoms: _459  and  _460
REMARK  189  A    between atoms: _469  and  _471
REMARK  190  A    between atoms: _471  and  _472
REMARK  191  A    between atoms: _471  and  _474
REMARK  192  A    between atoms: _474  and  _475
REMARK  193  A    between atoms: _480  and  _482
REMARK  194  A    between atoms: _482  and  _483
REMARK  195  A    between atoms: _482  and  _485
REMARK  196  A    between atoms: _485  and  _486
REMARK  197  A    between atoms: _486  and  _487
REMARK  198  A    between atoms: _487  and  _488
REMARK  199  A    between atoms: _497  and  _499
REMARK  200  A    between atoms: _499  and  _500
REMARK  201  A    between atoms: _499  and  _502
REMARK  202  A    between atoms: _502  and  _503
REMARK  203  A    between atoms: _503  and  _504
REMARK  204  A    between atoms: _504  and  _505
REMARK  205  A    between atoms: _514  and  _516
REMARK  206  A    between atoms: _516  and  _517
REMARK  207  A    between atoms: _516  and  _519
REMARK  208  A    between atoms: _519  and  _520
REMARK  209  A    between atoms: _523  and  _525
REMARK  210  A    between atoms: _525  and  _526
REMARK  211  A    between atoms: _525  and  _528
REMARK  212  A    between atoms: _528  and  _529
REMARK                            x       y       z     vdW  Elec       q    Type
REMARK                         _______ _______ _______ _____ _____    ______ ____
ROOT
ATOM      1  O   HOH     1      11.416  13.118   9.765  0.00  0.00    +0.000 OA
ENDROOT
TORSDOF 0
REMARK  Name = ../refined-set-2016/3ivc/3ivc_pocket.pdb
REMARK  212 active torsions:
REMARK  status: ('A' for Active; 'I' for Inactive)
REMARK    1  A    between atoms: _1  and  _3
REMARK    2  A    between atoms: _3  and  _4
REMARK    3  A    between atoms: _3  and  _6
REMARK    4  A    between atoms: _10  and  _11
REMARK    5  A    between atoms: _16  and  _18
REMARK    6  A    between atoms: _18  and  _19
REMARK    7  A    between atoms: _18  and  _21
REMARK    8  A    between atoms: _21  and  _22
REMARK    9  A    between atoms: _25  and  _27
REMARK   10  A    between atoms: _27  and  _28
REMARK   11  A    between atoms: _27  and  _30
REMARK   12  A    between atoms: _30  and  _31
REMARK   13  A    between atoms: _31  and  _32
REMARK   14  A    between atoms: _34  and  _36
REMARK   15  A    between atoms: _36  and  _37
REMARK   16  A    between atoms: _39  and  _41
REMARK   17  A    between atoms: _41  and  _42
REMARK   18  A    between atoms: _45  and  _47
REMARK   19  A    between atoms: _47  and  _48
REMARK   20  A    between atoms: _47  and  _50
REMARK   21  A    between atoms: _50  and  _51
REMARK   22  A    between atoms: _54  and  _56
REMARK   23  A    between atoms: _56  and  _57
REMARK   24  A    between atoms: _56  and  _59
REMARK   25  A    between atoms: _59  and  _60
REMARK   26  A    between atoms: _65  and  _67
REMARK   27  A    between atoms: _67  and  _68
REMARK   28  A    between atoms: _67  and  _70
REMARK   29  A    between atoms: _70  and  _71
REMARK   30  A    between atoms: _71  and  _72
REMARK   31  A    between atoms: _75  and  _77
REMARK   32  A    between atoms: _77  and  _78
REMARK   33  A    between atoms: _80  and  _82
REMARK   34  A    between atoms: _82  and  _83
REMARK   35  A    between atoms: _82  and  _85
REMARK   36  A    between atoms: _85  and  _86
REMARK   37  A    between atoms: _91  and  _93
REMARK   38  A    between atoms: _93  and  _94
REMARK   39  A    between atoms: _93  and  _96
REMARK   40  A    between atoms: _96  and  _97
REMARK   41  A    between atoms: _100  and  _102
REMARK   42  A    between atoms: _102  and  _103
REMARK   43  A    between atoms: _106  and  _108
REMARK   44  A    between atoms: _108  and  _109
REMARK   45  A    between atoms: _108  and  _111
REMARK   46  A    between atoms: _111  and  _112
REMARK   47  A    between atoms: _115  and  _117
REMARK   48  A    between atoms: _117  and  _118
REMARK   49  A    between atoms: _117  and  _120
REMARK   50  A    between atoms: _123  and  _125
REMARK   51  A    between atoms: _125  and  _126
REMARK   52  A    between atoms: _125  and  _128
REMARK   53  A    between atoms: _128  and  _129
REMARK   54  A    between atoms: _131  and  _133
REMARK   55  A    between atoms: _133  and  _134
REMARK   56  A    between atoms: _133  and  _136
REMARK   57  A    between atoms: _136  and  _137
REMARK   58  A    between atoms: _140  and  _142
REMARK   59  A    between atoms: _142  and  _143
REMARK   60  A    between atoms: _142  and  _145
REMARK   61  A    between atoms: _145  and  _146
REMARK   62  A    between atoms: _152  and  _154
REMARK   63  A    between atoms: _154  and  _155
REMARK   64  A    between atoms: _154  and  _157
REMARK   65  A    between atoms: _157  and  _158
REMARK   66  A    between atoms: _163  and  _165
REMARK   67  A    between atoms: _165  and  _166
REMARK   68  A    between atoms: _165  and  _168
REMARK   69  A    between atoms: _168  and  _169
REMARK   70  A    between atoms: _169  and  _170
REMARK   71  A    between atoms: _175  and  _177
REMARK   72  A    between atoms: _177  and  _178
REMARK   73  A    between atoms: _177  and  _180
REMARK   74  A    between atoms: _180  and  _181
REMARK   75  A    between atoms: _186  and  _187
REMARK   76  A    between atoms: _189  and  _191
REMARK   77  A    between atoms: _191  and  _192
REMARK   78  A    between atoms: _191  and  _194
REMARK   79  A    between atoms: _194  and  _195
REMARK   80  A    between atoms: _200  and  _202
REMARK   81  A    between atoms: _202  and  _203
REMARK   82  A    between atoms: _202  and  _205
REMARK   83  A    between atoms: _205  and  _206
REMARK   84  A    between atoms: _212  and  _214
REMARK   85  A    between atoms: _214  and  _215
REMARK   86  A    between atoms: _217  and  _219
REMARK   87  A    between atoms: _219  and  _220
REMARK   88  A    between atoms: _219  and  _222
REMARK   89  A    between atoms: _225  and  _227
REMARK   90  A    between atoms: _227  and  _228
REMARK   91  A    between atoms: _227  and  _230
REMARK   92  A    between atoms: _230  and  _231
REMARK   93  A    between atoms: _234  and  _236
REMARK   94  A    between atoms: _236  and  _237
REMARK   95  A    between atoms: _236  and  _239
REMARK   96  A    between atoms: _242  and  _244
REMARK   97  A    between atoms: _244  and  _245
REMARK   98  A    between atoms: _244  and  _247
REMARK   99  A    between atoms: _250  and  _252
REMARK  100  A    between atoms: _252  and  _253
REMARK  101  A    between atoms: _252  and  _255
REMARK  102  A    between atoms: _255  and  _256
REMARK  103  A    between atoms: _259  and  _261
REMARK  104  A    between atoms: _261  and  _262
REMARK  105  A    between atoms: _261  and  _264
REMARK  106  A    between atoms: _264  and  _265
REMARK  107  A    between atoms: _268  and  _270
REMARK  108  A    between atoms: _270  and  _271
REMARK  109  A    between atoms: _270  and  _273
REMARK  110  A    between atoms: _276  and  _278
REMARK  111  A    between atoms: _278  and  _279
REMARK  112  A    between atoms: _278  and  _281
REMARK  113  A    between atoms: _281  and  _282
REMARK  114  A    between atoms: _288  and  _290
REMARK  115  A    between atoms: _290  and  _291
REMARK  116  A    between atoms: _290  and  _293
REMARK  117  A    between atoms: _293  and  _294
REMARK  118  A    between atoms: _300  and  _302
REMARK  119  A    between atoms: _302  and  _303
REMARK  120  A    between atoms: _305  and  _307
REMARK  121  A    between atoms: _307  and  _308
REMARK  122  A    between atoms: _307  and  _310
REMARK  123  A    between atoms: _310  and  _311
REMARK  124  A    between atoms: _311  and  _312
REMARK  125  A    between atoms: _315  and  _317
REMARK  126  A    between atoms: _317  and  _318
REMARK  127  A    between atoms: _317  and  _320
REMARK  128  A    between atoms: _320  and  _321
REMARK  129  A    between atoms: _321  and  _322
REMARK  130  A    between atoms: _322  and  _323
REMARK  131  A    between atoms: _323  and  _324
REMARK  132  A    between atoms: _328  and  _330
REMARK  133  A    between atoms: _330  and  _331
REMARK  134  A    between atoms: _330  and  _333
REMARK  135  A    between atoms: _333  and  _334
REMARK  136  A    between atoms: _337  and  _339
REMARK  137  A    between atoms: _339  and  _340
REMARK  138  A    between atoms: _339  and  _342
REMARK  139  A    between atoms: _342  and  _343
REMARK  140  A    between atoms: _343  and  _344
REMARK  141  A    between atoms: _349  and  _351
REMARK  142  A    between atoms: _351  and  _352
REMARK  143  A    between atoms: _351  and  _354
REMARK  144  A    between atoms: _354  and  _355
REMARK  145  A    between atoms: _358  and  _360
REMARK  146  A    between atoms: _360  and  _361
REMARK  147  A    between atoms: _363  and  _365
REMARK  148  A    between atoms: _365  and  _366
REMARK  149  A    between atoms: _365  and  _368
REMARK  150  A    between atoms: _372  and  _373
REMARK  151  A    between atoms: _378  and  _380
REMARK  152  A    between atoms: _380  and  _381
REMARK  153  A    between atoms: _380  and  _383
REMARK  154  A    between atoms: _383  and  _384
REMARK  155  A    between atoms: _387  and  _389
REMARK  156  A    between atoms: _389  and  _390
REMARK  157  A    between atoms: _389  and  _392
REMARK  158  A    between atoms: _395  and  _397
REMARK  159  A    between atoms: _397  and  _398
REMARK  160  A    between atoms: _397  and  _400
REMARK  161  A    between atoms: _400  and  _401
REMARK  162  A    between atoms: _401  and  _402
REMARK  163  A    between atoms: _402  and  _403
REMARK  164  A    between atoms: _412  and  _414
REMARK  165  A    between atoms: _414  and  _415
REMARK  166  A    between atoms: _414  and  _417
REMARK  167  A    between atoms: _417  and  _418
REMARK  168  A    between atoms: _421  and  _423
REMARK  169  A    between atoms: _423  and  _424
REMARK  170  A    between atoms: _427  and  _429
REMARK  171  A    between atoms: _429  and  _430
REMARK  172  A    between atoms: _429  and  _432
REMARK  173  A    between atoms: _432  and  _433
REMARK  174  A    between atoms: _433  and  _434
REMARK  175  A    between atoms: _436  and  _438
REMARK  176  A    between atoms: _438  and  _439
REMARK  177  A    between atoms: _438  and  _441
REMARK  178  A    between atoms: _441  and  _442
REMARK  179  A    between atoms: _444  and  _446
REMARK  180  A    between atoms: _446  and  _447
REMARK  181  A    between atoms: _446  and  _449
REMARK  182  A    between atoms: _449  and  _450
REMARK  183  A    between atoms: _452  and  _454
REMARK  184  A    between atoms: _454  and  _455
REMARK  185  A    between atoms: _454  and  _457
REMARK  186  A    between atoms: _457  and  _458
REMARK  187  A    between atoms: _458  and  _459
REMARK  188  A    between atoms: _459  and  _460
REMARK  189  A    between atoms: _469  and  _471
REMARK  190  A    between atoms: _471  and  _472
REMARK  191  A    between atoms: _471  and  _474
REMARK  192  A    between atoms: _474  and  _475
REMARK  193  A    between atoms: _480  and  _482
REMARK  194  A    between atoms: _482  and  _483
REMARK  195  A    between atoms: _482  and  _485
REMARK  196  A    between atoms: _485  and  _486
REMARK  197  A    between atoms: _486  and  _487
REMARK  198  A    between atoms: _487  and  _488
REMARK  199  A    between atoms: _497  and  _499
REMARK  200  A    between atoms: _499  and  _500
REMARK  201  A    between atoms: _499  and  _502
REMARK  202  A    between atoms: _502  and  _503
REMARK  203  A    between atoms: _503  and  _504
REMARK  204  A    between atoms: _504  and  _505
REMARK  205  A    between atoms: _514  and  _516
REMARK  206  A    between atoms: _516  and  _517
REMARK  207  A    between atoms: _516  and  _519
REMARK  208  A    between atoms: _519  and  _520
REMARK  209  A    between atoms: _523  and  _525
REMARK  210  A    between atoms: _525  and  _526
REMARK  211  A    between atoms: _525  and  _528
REMARK  212  A    between atoms: _528  and  _529
REMARK                            x       y       z     vdW  Elec       q    Type
REMARK                         _______ _______ _______ _____ _____    ______ ____
ROOT
ATOM      1  O   HOH     1      24.216   7.879   0.954  0.00  0.00    +0.000 OA
ENDROOT
TORSDOF 0
REMARK  Name = ../refined-set-2016/3ivc/3ivc_pocket.pdb
REMARK  212 active torsions:
REMARK  status: ('A' for Active; 'I' for Inactive)
REMARK    1  A    between atoms: _1  and  _3
REMARK    2  A    between atoms: _3  and  _4
REMARK    3  A    between atoms: _3  and  _6
REMARK    4  A    between atoms: _10  and  _11
REMARK    5  A    between atoms: _16  and  _18
REMARK    6  A    between atoms: _18  and  _19
REMARK    7  A    between atoms: _18  and  _21
REMARK    8  A    between atoms: _21  and  _22
REMARK    9  A    between atoms: _25  and  _27
REMARK   10  A    between atoms: _27  and  _28
REMARK   11  A    between atoms: _27  and  _30
REMARK   12  A    between atoms: _30  and  _31
REMARK   13  A    between atoms: _31  and  _32
REMARK   14  A    between atoms: _34  and  _36
REMARK   15  A    between atoms: _36  and  _37
REMARK   16  A    between atoms: _39  and  _41
REMARK   17  A    between atoms: _41  and  _42
REMARK   18  A    between atoms: _45  and  _47
REMARK   19  A    between atoms: _47  and  _48
REMARK   20  A    between atoms: _47  and  _50
REMARK   21  A    between atoms: _50  and  _51
REMARK   22  A    between atoms: _54  and  _56
REMARK   23  A    between atoms: _56  and  _57
REMARK   24  A    between atoms: _56  and  _59
REMARK   25  A    between atoms: _59  and  _60
REMARK   26  A    between atoms: _65  and  _67
REMARK   27  A    between atoms: _67  and  _68
REMARK   28  A    between atoms: _67  and  _70
REMARK   29  A    between atoms: _70  and  _71
REMARK   30  A    between atoms: _71  and  _72
REMARK   31  A    between atoms: _75  and  _77
REMARK   32  A    between atoms: _77  and  _78
REMARK   33  A    between atoms: _80  and  _82
REMARK   34  A    between atoms: _82  and  _83
REMARK   35  A    between atoms: _82  and  _85
REMARK   36  A    between atoms: _85  and  _86
REMARK   37  A    between atoms: _91  and  _93
REMARK   38  A    between atoms: _93  and  _94
REMARK   39  A    between atoms: _93  and  _96
REMARK   40  A    between atoms: _96  and  _97
REMARK   41  A    between atoms: _100  and  _102
REMARK   42  A    between atoms: _102  and  _103
REMARK   43  A    between atoms: _106  and  _108
REMARK   44  A    between atoms: _108  and  _109
REMARK   45  A    between atoms: _108  and  _111
REMARK   46  A    between atoms: _111  and  _112
REMARK   47  A    between atoms: _115  and  _117
REMARK   48  A    between atoms: _117  and  _118
REMARK   49  A    between atoms: _117  and  _120
REMARK   50  A    between atoms: _123  and  _125
REMARK   51  A    between atoms: _125  and  _126
REMARK   52  A    between atoms: _125  and  _128
REMARK   53  A    between atoms: _128  and  _129
REMARK   54  A    between atoms: _131  and  _133
REMARK   55  A    between atoms: _133  and  _134
REMARK   56  A    between atoms: _133  and  _136
REMARK   57  A    between atoms: _136  and  _137
REMARK   58  A    between atoms: _140  and  _142
REMARK   59  A    between atoms: _142  and  _143
REMARK   60  A    between atoms: _142  and  _145
REMARK   61  A    between atoms: _145  and  _146
REMARK   62  A    between atoms: _152  and  _154
REMARK   63  A    between atoms: _154  and  _155
REMARK   64  A    between atoms: _154  and  _157
REMARK   65  A    between atoms: _157  and  _158
REMARK   66  A    between atoms: _163  and  _165
REMARK   67  A    between atoms: _165  and  _166
REMARK   68  A    between atoms: _165  and  _168
REMARK   69  A    between atoms: _168  and  _169
REMARK   70  A    between atoms: _169  and  _170
REMARK   71  A    between atoms: _175  and  _177
REMARK   72  A    between atoms: _177  and  _178
REMARK   73  A    between atoms: _177  and  _180
REMARK   74  A    between atoms: _180  and  _181
REMARK   75  A    between atoms: _186  and  _187
REMARK   76  A    between atoms: _189  and  _191
REMARK   77  A    between atoms: _191  and  _192
REMARK   78  A    between atoms: _191  and  _194
REMARK   79  A    between atoms: _194  and  _195
REMARK   80  A    between atoms: _200  and  _202
REMARK   81  A    between atoms: _202  and  _203
REMARK   82  A    between atoms: _202  and  _205
REMARK   83  A    between atoms: _205  and  _206
REMARK   84  A    between atoms: _212  and  _214
REMARK   85  A    between atoms: _214  and  _215
REMARK   86  A    between atoms: _217  and  _219
REMARK   87  A    between atoms: _219  and  _220
REMARK   88  A    between atoms: _219  and  _222
REMARK   89  A    between atoms: _225  and  _227
REMARK   90  A    between atoms: _227  and  _228
REMARK   91  A    between atoms: _227  and  _230
REMARK   92  A    between atoms: _230  and  _231
REMARK   93  A    between atoms: _234  and  _236
REMARK   94  A    between atoms: _236  and  _237
REMARK   95  A    between atoms: _236  and  _239
REMARK   96  A    between atoms: _242  and  _244
REMARK   97  A    between atoms: _244  and  _245
REMARK   98  A    between atoms: _244  and  _247
REMARK   99  A    between atoms: _250  and  _252
REMARK  100  A    between atoms: _252  and  _253
REMARK  101  A    between atoms: _252  and  _255
REMARK  102  A    between atoms: _255  and  _256
REMARK  103  A    between atoms: _259  and  _261
REMARK  104  A    between atoms: _261  and  _262
REMARK  105  A    between atoms: _261  and  _264
REMARK  106  A    between atoms: _264  and  _265
REMARK  107  A    between atoms: _268  and  _270
REMARK  108  A    between atoms: _270  and  _271
REMARK  109  A    between atoms: _270  and  _273
REMARK  110  A    between atoms: _276  and  _278
REMARK  111  A    between atoms: _278  and  _279
REMARK  112  A    between atoms: _278  and  _281
REMARK  113  A    between atoms: _281  and  _282
REMARK  114  A    between atoms: _288  and  _290
REMARK  115  A    between atoms: _290  and  _291
REMARK  116  A    between atoms: _290  and  _293
REMARK  117  A    between atoms: _293  and  _294
REMARK  118  A    between atoms: _300  and  _302
REMARK  119  A    between atoms: _302  and  _303
REMARK  120  A    between atoms: _305  and  _307
REMARK  121  A    between atoms: _307  and  _308
REMARK  122  A    between atoms: _307  and  _310
REMARK  123  A    between atoms: _310  and  _311
REMARK  124  A    between atoms: _311  and  _312
REMARK  125  A    between atoms: _315  and  _317
REMARK  126  A    between atoms: _317  and  _318
REMARK  127  A    between atoms: _317  and  _320
REMARK  128  A    between atoms: _320  and  _321
REMARK  129  A    between atoms: _321  and  _322
REMARK  130  A    between atoms: _322  and  _323
REMARK  131  A    between atoms: _323  and  _324
REMARK  132  A    between atoms: _328  and  _330
REMARK  133  A    between atoms: _330  and  _331
REMARK  134  A    between atoms: _330  and  _333
REMARK  135  A    between atoms: _333  and  _334
REMARK  136  A    between atoms: _337  and  _339
REMARK  137  A    between atoms: _339  and  _340
REMARK  138  A    between atoms: _339  and  _342
REMARK  139  A    between atoms: _342  and  _343
REMARK  140  A    between atoms: _343  and  _344
REMARK  141  A    between atoms: _349  and  _351
REMARK  142  A    between atoms: _351  and  _352
REMARK  143  A    between atoms: _351  and  _354
REMARK  144  A    between atoms: _354  and  _355
REMARK  145  A    between atoms: _358  and  _360
REMARK  146  A    between atoms: _360  and  _361
REMARK  147  A    between atoms: _363  and  _365
REMARK  148  A    between atoms: _365  and  _366
REMARK  149  A    between atoms: _365  and  _368
REMARK  150  A    between atoms: _372  and  _373
REMARK  151  A    between atoms: _378  and  _380
REMARK  152  A    between atoms: _380  and  _381
REMARK  153  A    between atoms: _380  and  _383
REMARK  154  A    between atoms: _383  and  _384
REMARK  155  A    between atoms: _387  and  _389
REMARK  156  A    between atoms: _389  and  _390
REMARK  157  A    between atoms: _389  and  _392
REMARK  158  A    between atoms: _395  and  _397
REMARK  159  A    between atoms: _397  and  _398
REMARK  160  A    between atoms: _397  and  _400
REMARK  161  A    between atoms: _400  and  _401
REMARK  162  A    between atoms: _401  and  _402
REMARK  163  A    between atoms: _402  and  _403
REMARK  164  A    between atoms: _412  and  _414
REMARK  165  A    between atoms: _414  and  _415
REMARK  166  A    between atoms: _414  and  _417
REMARK  167  A    between atoms: _417  and  _418
REMARK  168  A    between atoms: _421  and  _423
REMARK  169  A    between atoms: _423  and  _424
REMARK  170  A    between atoms: _427  and  _429
REMARK  171  A    between atoms: _429  and  _430
REMARK  172  A    between atoms: _429  and  _432
REMARK  173  A    between atoms: _432  and  _433
REMARK  174  A    between atoms: _433  and  _434
REMARK  175  A    between atoms: _436  and  _438
REMARK  176  A    between atoms: _438  and  _439
REMARK  177  A    between atoms: _438  and  _441
REMARK  178  A    between atoms: _441  and  _442
REMARK  179  A    between atoms: _444  and  _446
REMARK  180  A    between atoms: _446  and  _447
REMARK  181  A    between atoms: _446  and  _449
REMARK  182  A    between atoms: _449  and  _450
REMARK  183  A    between atoms: _452  and  _454
REMARK  184  A    between atoms: _454  and  _455
REMARK  185  A    between atoms: _454  and  _457
REMARK  186  A    between atoms: _457  and  _458
REMARK  187  A    between atoms: _458  and  _459
REMARK  188  A    between atoms: _459  and  _460
REMARK  189  A    between atoms: _469  and  _471
REMARK  190  A    between atoms: _471  and  _472
REMARK  191  A    between atoms: _471  and  _474
REMARK  192  A    between atoms: _474  and  _475
REMARK  193  A    between atoms: _480  and  _482
REMARK  194  A    between atoms: _482  and  _483
REMARK  195  A    between atoms: _482  and  _485
REMARK  196  A    between atoms: _485  and  _486
REMARK  197  A    between atoms: _486  and  _487
REMARK  198  A    between atoms: _487  and  _488
REMARK  199  A    between atoms: _497  and  _499
REMARK  200  A    between atoms: _499  and  _500
REMARK  201  A    between atoms: _499  and  _502
REMARK  202  A    between atoms: _502  and  _503
REMARK  203  A    between atoms: _503  and  _504
REMARK  204  A    between atoms: _504  and  _505
REMARK  205  A    between atoms: _514  and  _516
REMARK  206  A    between atoms: _516  and  _517
REMARK  207  A    between atoms: _516  and  _519
REMARK  208  A    between atoms: _519  and  _520
REMARK  209  A    between atoms: _523  and  _525
REMARK  210  A    between atoms: _525  and  _526
REMARK  211  A    between atoms: _525  and  _528
REMARK  212  A    between atoms: _528  and  _529
REMARK                            x       y       z     vdW  Elec       q    Type
REMARK                         _______ _______ _______ _____ _____    ______ ____
ROOT
ATOM      1  O   HOH     1      13.275   4.847 -11.105  0.00  0.00    +0.000 OA
ENDROOT
TORSDOF 0
REMARK  Name = ../refined-set-2016/3ivc/3ivc_pocket.pdb
REMARK  212 active torsions:
REMARK  status: ('A' for Active; 'I' for Inactive)
REMARK    1  A    between atoms: _1  and  _3
REMARK    2  A    between atoms: _3  and  _4
REMARK    3  A    between atoms: _3  and  _6
REMARK    4  A    between atoms: _10  and  _11
REMARK    5  A    between atoms: _16  and  _18
REMARK    6  A    between atoms: _18  and  _19
REMARK    7  A    between atoms: _18  and  _21
REMARK    8  A    between atoms: _21  and  _22
REMARK    9  A    between atoms: _25  and  _27
REMARK   10  A    between atoms: _27  and  _28
REMARK   11  A    between atoms: _27  and  _30
REMARK   12  A    between atoms: _30  and  _31
REMARK   13  A    between atoms: _31  and  _32
REMARK   14  A    between atoms: _34  and  _36
REMARK   15  A    between atoms: _36  and  _37
REMARK   16  A    between atoms: _39  and  _41
REMARK   17  A    between atoms: _41  and  _42
REMARK   18  A    between atoms: _45  and  _47
REMARK   19  A    between atoms: _47  and  _48
REMARK   20  A    between atoms: _47  and  _50
REMARK   21  A    between atoms: _50  and  _51
REMARK   22  A    between atoms: _54  and  _56
REMARK   23  A    between atoms: _56  and  _57
REMARK   24  A    between atoms: _56  and  _59
REMARK   25  A    between atoms: _59  and  _60
REMARK   26  A    between atoms: _65  and  _67
REMARK   27  A    between atoms: _67  and  _68
REMARK   28  A    between atoms: _67  and  _70
REMARK   29  A    between atoms: _70  and  _71
REMARK   30  A    between atoms: _71  and  _72
REMARK   31  A    between atoms: _75  and  _77
REMARK   32  A    between atoms: _77  and  _78
REMARK   33  A    between atoms: _80  and  _82
REMARK   34  A    between atoms: _82  and  _83
REMARK   35  A    between atoms: _82  and  _85
REMARK   36  A    between atoms: _85  and  _86
REMARK   37  A    between atoms: _91  and  _93
REMARK   38  A    between atoms: _93  and  _94
REMARK   39  A    between atoms: _93  and  _96
REMARK   40  A    between atoms: _96  and  _97
REMARK   41  A    between atoms: _100  and  _102
REMARK   42  A    between atoms: _102  and  _103
REMARK   43  A    between atoms: _106  and  _108
REMARK   44  A    between atoms: _108  and  _109
REMARK   45  A    between atoms: _108  and  _111
REMARK   46  A    between atoms: _111  and  _112
REMARK   47  A    between atoms: _115  and  _117
REMARK   48  A    between atoms: _117  and  _118
REMARK   49  A    between atoms: _117  and  _120
REMARK   50  A    between atoms: _123  and  _125
REMARK   51  A    between atoms: _125  and  _126
REMARK   52  A    between atoms: _125  and  _128
REMARK   53  A    between atoms: _128  and  _129
REMARK   54  A    between atoms: _131  and  _133
REMARK   55  A    between atoms: _133  and  _134
REMARK   56  A    between atoms: _133  and  _136
REMARK   57  A    between atoms: _136  and  _137
REMARK   58  A    between atoms: _140  and  _142
REMARK   59  A    between atoms: _142  and  _143
REMARK   60  A    between atoms: _142  and  _145
REMARK   61  A    between atoms: _145  and  _146
REMARK   62  A    between atoms: _152  and  _154
REMARK   63  A    between atoms: _154  and  _155
REMARK   64  A    between atoms: _154  and  _157
REMARK   65  A    between atoms: _157  and  _158
REMARK   66  A    between atoms: _163  and  _165
REMARK   67  A    between atoms: _165  and  _166
REMARK   68  A    between atoms: _165  and  _168
REMARK   69  A    between atoms: _168  and  _169
REMARK   70  A    between atoms: _169  and  _170
REMARK   71  A    between atoms: _175  and  _177
REMARK   72  A    between atoms: _177  and  _178
REMARK   73  A    between atoms: _177  and  _180
REMARK   74  A    between atoms: _180  and  _181
REMARK   75  A    between atoms: _186  and  _187
REMARK   76  A    between atoms: _189  and  _191
REMARK   77  A    between atoms: _191  and  _192
REMARK   78  A    between atoms: _191  and  _194
REMARK   79  A    between atoms: _194  and  _195
REMARK   80  A    between atoms: _200  and  _202
REMARK   81  A    between atoms: _202  and  _203
REMARK   82  A    between atoms: _202  and  _205
REMARK   83  A    between atoms: _205  and  _206
REMARK   84  A    between atoms: _212  and  _214
REMARK   85  A    between atoms: _214  and  _215
REMARK   86  A    between atoms: _217  and  _219
REMARK   87  A    between atoms: _219  and  _220
REMARK   88  A    between atoms: _219  and  _222
REMARK   89  A    between atoms: _225  and  _227
REMARK   90  A    between atoms: _227  and  _228
REMARK   91  A    between atoms: _227  and  _230
REMARK   92  A    between atoms: _230  and  _231
REMARK   93  A    between atoms: _234  and  _236
REMARK   94  A    between atoms: _236  and  _237
REMARK   95  A    between atoms: _236  and  _239
REMARK   96  A    between atoms: _242  and  _244
REMARK   97  A    between atoms: _244  and  _245
REMARK   98  A    between atoms: _244  and  _247
REMARK   99  A    between atoms: _250  and  _252
REMARK  100  A    between atoms: _252  and  _253
REMARK  101  A    between atoms: _252  and  _255
REMARK  102  A    between atoms: _255  and  _256
REMARK  103  A    between atoms: _259  and  _261
REMARK  104  A    between atoms: _261  and  _262
REMARK  105  A    between atoms: _261  and  _264
REMARK  106  A    between atoms: _264  and  _265
REMARK  107  A    between atoms: _268  and  _270
REMARK  108  A    between atoms: _270  and  _271
REMARK  109  A    between atoms: _270  and  _273
REMARK  110  A    between atoms: _276  and  _278
REMARK  111  A    between atoms: _278  and  _279
REMARK  112  A    between atoms: _278  and  _281
REMARK  113  A    between atoms: _281  and  _282
REMARK  114  A    between atoms: _288  and  _290
REMARK  115  A    between atoms: _290  and  _291
REMARK  116  A    between atoms: _290  and  _293
REMARK  117  A    between atoms: _293  and  _294
REMARK  118  A    between atoms: _300  and  _302
REMARK  119  A    between atoms: _302  and  _303
REMARK  120  A    between atoms: _305  and  _307
REMARK  121  A    between atoms: _307  and  _308
REMARK  122  A    between atoms: _307  and  _310
REMARK  123  A    between atoms: _310  and  _311
REMARK  124  A    between atoms: _311  and  _312
REMARK  125  A    between atoms: _315  and  _317
REMARK  126  A    between atoms: _317  and  _318
REMARK  127  A    between atoms: _317  and  _320
REMARK  128  A    between atoms: _320  and  _321
REMARK  129  A    between atoms: _321  and  _322
REMARK  130  A    between atoms: _322  and  _323
REMARK  131  A    between atoms: _323  and  _324
REMARK  132  A    between atoms: _328  and  _330
REMARK  133  A    between atoms: _330  and  _331
REMARK  134  A    between atoms: _330  and  _333
REMARK  135  A    between atoms: _333  and  _334
REMARK  136  A    between atoms: _337  and  _339
REMARK  137  A    between atoms: _339  and  _340
REMARK  138  A    between atoms: _339  and  _342
REMARK  139  A    between atoms: _342  and  _343
REMARK  140  A    between atoms: _343  and  _344
REMARK  141  A    between atoms: _349  and  _351
REMARK  142  A    between atoms: _351  and  _352
REMARK  143  A    between atoms: _351  and  _354
REMARK  144  A    between atoms: _354  and  _355
REMARK  145  A    between atoms: _358  and  _360
REMARK  146  A    between atoms: _360  and  _361
REMARK  147  A    between atoms: _363  and  _365
REMARK  148  A    between atoms: _365  and  _366
REMARK  149  A    between atoms: _365  and  _368
REMARK  150  A    between atoms: _372  and  _373
REMARK  151  A    between atoms: _378  and  _380
REMARK  152  A    between atoms: _380  and  _381
REMARK  153  A    between atoms: _380  and  _383
REMARK  154  A    between atoms: _383  and  _384
REMARK  155  A    between atoms: _387  and  _389
REMARK  156  A    between atoms: _389  and  _390
REMARK  157  A    between atoms: _389  and  _392
REMARK  158  A    between atoms: _395  and  _397
REMARK  159  A    between atoms: _397  and  _398
REMARK  160  A    between atoms: _397  and  _400
REMARK  161  A    between atoms: _400  and  _401
REMARK  162  A    between atoms: _401  and  _402
REMARK  163  A    between atoms: _402  and  _403
REMARK  164  A    between atoms: _412  and  _414
REMARK  165  A    between atoms: _414  and  _415
REMARK  166  A    between atoms: _414  and  _417
REMARK  167  A    between atoms: _417  and  _418
REMARK  168  A    between atoms: _421  and  _423
REMARK  169  A    between atoms: _423  and  _424
REMARK  170  A    between atoms: _427  and  _429
REMARK  171  A    between atoms: _429  and  _430
REMARK  172  A    between atoms: _429  and  _432
REMARK  173  A    between atoms: _432  and  _433
REMARK  174  A    between atoms: _433  and  _434
REMARK  175  A    between atoms: _436  and  _438
REMARK  176  A    between atoms: _438  and  _439
REMARK  177  A    between atoms: _438  and  _441
REMARK  178  A    between atoms: _441  and  _442
REMARK  179  A    between atoms: _444  and  _446
REMARK  180  A    between atoms: _446  and  _447
REMARK  181  A    between atoms: _446  and  _449
REMARK  182  A    between atoms: _449  and  _450
REMARK  183  A    between atoms: _452  and  _454
REMARK  184  A    between atoms: _454  and  _455
REMARK  185  A    between atoms: _454  and  _457
REMARK  186  A    between atoms: _457  and  _458
REMARK  187  A    between atoms: _458  and  _459
REMARK  188  A    between atoms: _459  and  _460
REMARK  189  A    between atoms: _469  and  _471
REMARK  190  A    between atoms: _471  and  _472
REMARK  191  A    between atoms: _471  and  _474
REMARK  192  A    between atoms: _474  and  _475
REMARK  193  A    between atoms: _480  and  _482
REMARK  194  A    between atoms: _482  and  _483
REMARK  195  A    between atoms: _482  and  _485
REMARK  196  A    between atoms: _485  and  _486
REMARK  197  A    between atoms: _486  and  _487
REMARK  198  A    between atoms: _487  and  _488
REMARK  199  A    between atoms: _497  and  _499
REMARK  200  A    between atoms: _499  and  _500
REMARK  201  A    between atoms: _499  and  _502
REMARK  202  A    between atoms: _502  and  _503
REMARK  203  A    between atoms: _503  and  _504
REMARK  204  A    between atoms: _504  and  _505
REMARK  205  A    between atoms: _514  and  _516
REMARK  206  A    between atoms: _516  and  _517
REMARK  207  A    between atoms: _516  and  _519
REMARK  208  A    between atoms: _519  and  _520
REMARK  209  A    between atoms: _523  and  _525
REMARK  210  A    between atoms: _525  and  _526
REMARK  211  A    between atoms: _525  and  _528
REMARK  212  A    between atoms: _528  and  _529
REMARK                            x       y       z     vdW  Elec       q    Type
REMARK                         _______ _______ _______ _____ _____    ______ ____
ROOT
ATOM      1  O   HOH     1      20.859   8.422   6.330  0.00  0.00    +0.000 OA
ENDROOT
TORSDOF 0
REMARK  Name = ../refined-set-2016/3ivc/3ivc_pocket.pdb
REMARK  212 active torsions:
REMARK  status: ('A' for Active; 'I' for Inactive)
REMARK    1  A    between atoms: _1  and  _3
REMARK    2  A    between atoms: _3  and  _4
REMARK    3  A    between atoms: _3  and  _6
REMARK    4  A    between atoms: _10  and  _11
REMARK    5  A    between atoms: _16  and  _18
REMARK    6  A    between atoms: _18  and  _19
REMARK    7  A    between atoms: _18  and  _21
REMARK    8  A    between atoms: _21  and  _22
REMARK    9  A    between atoms: _25  and  _27
REMARK   10  A    between atoms: _27  and  _28
REMARK   11  A    between atoms: _27  and  _30
REMARK   12  A    between atoms: _30  and  _31
REMARK   13  A    between atoms: _31  and  _32
REMARK   14  A    between atoms: _34  and  _36
REMARK   15  A    between atoms: _36  and  _37
REMARK   16  A    between atoms: _39  and  _41
REMARK   17  A    between atoms: _41  and  _42
REMARK   18  A    between atoms: _45  and  _47
REMARK   19  A    between atoms: _47  and  _48
REMARK   20  A    between atoms: _47  and  _50
REMARK   21  A    between atoms: _50  and  _51
REMARK   22  A    between atoms: _54  and  _56
REMARK   23  A    between atoms: _56  and  _57
REMARK   24  A    between atoms: _56  and  _59
REMARK   25  A    between atoms: _59  and  _60
REMARK   26  A    between atoms: _65  and  _67
REMARK   27  A    between atoms: _67  and  _68
REMARK   28  A    between atoms: _67  and  _70
REMARK   29  A    between atoms: _70  and  _71
REMARK   30  A    between atoms: _71  and  _72
REMARK   31  A    between atoms: _75  and  _77
REMARK   32  A    between atoms: _77  and  _78
REMARK   33  A    between atoms: _80  and  _82
REMARK   34  A    between atoms: _82  and  _83
REMARK   35  A    between atoms: _82  and  _85
REMARK   36  A    between atoms: _85  and  _86
REMARK   37  A    between atoms: _91  and  _93
REMARK   38  A    between atoms: _93  and  _94
REMARK   39  A    between atoms: _93  and  _96
REMARK   40  A    between atoms: _96  and  _97
REMARK   41  A    between atoms: _100  and  _102
REMARK   42  A    between atoms: _102  and  _103
REMARK   43  A    between atoms: _106  and  _108
REMARK   44  A    between atoms: _108  and  _109
REMARK   45  A    between atoms: _108  and  _111
REMARK   46  A    between atoms: _111  and  _112
REMARK   47  A    between atoms: _115  and  _117
REMARK   48  A    between atoms: _117  and  _118
REMARK   49  A    between atoms: _117  and  _120
REMARK   50  A    between atoms: _123  and  _125
REMARK   51  A    between atoms: _125  and  _126
REMARK   52  A    between atoms: _125  and  _128
REMARK   53  A    between atoms: _128  and  _129
REMARK   54  A    between atoms: _131  and  _133
REMARK   55  A    between atoms: _133  and  _134
REMARK   56  A    between atoms: _133  and  _136
REMARK   57  A    between atoms: _136  and  _137
REMARK   58  A    between atoms: _140  and  _142
REMARK   59  A    between atoms: _142  and  _143
REMARK   60  A    between atoms: _142  and  _145
REMARK   61  A    between atoms: _145  and  _146
REMARK   62  A    between atoms: _152  and  _154
REMARK   63  A    between atoms: _154  and  _155
REMARK   64  A    between atoms: _154  and  _157
REMARK   65  A    between atoms: _157  and  _158
REMARK   66  A    between atoms: _163  and  _165
REMARK   67  A    between atoms: _165  and  _166
REMARK   68  A    between atoms: _165  and  _168
REMARK   69  A    between atoms: _168  and  _169
REMARK   70  A    between atoms: _169  and  _170
REMARK   71  A    between atoms: _175  and  _177
REMARK   72  A    between atoms: _177  and  _178
REMARK   73  A    between atoms: _177  and  _180
REMARK   74  A    between atoms: _180  and  _181
REMARK   75  A    between atoms: _186  and  _187
REMARK   76  A    between atoms: _189  and  _191
REMARK   77  A    between atoms: _191  and  _192
REMARK   78  A    between atoms: _191  and  _194
REMARK   79  A    between atoms: _194  and  _195
REMARK   80  A    between atoms: _200  and  _202
REMARK   81  A    between atoms: _202  and  _203
REMARK   82  A    between atoms: _202  and  _205
REMARK   83  A    between atoms: _205  and  _206
REMARK   84  A    between atoms: _212  and  _214
REMARK   85  A    between atoms: _214  and  _215
REMARK   86  A    between atoms: _217  and  _219
REMARK   87  A    between atoms: _219  and  _220
REMARK   88  A    between atoms: _219  and  _222
REMARK   89  A    between atoms: _225  and  _227
REMARK   90  A    between atoms: _227  and  _228
REMARK   91  A    between atoms: _227  and  _230
REMARK   92  A    between atoms: _230  and  _231
REMARK   93  A    between atoms: _234  and  _236
REMARK   94  A    between atoms: _236  and  _237
REMARK   95  A    between atoms: _236  and  _239
REMARK   96  A    between atoms: _242  and  _244
REMARK   97  A    between atoms: _244  and  _245
REMARK   98  A    between atoms: _244  and  _247
REMARK   99  A    between atoms: _250  and  _252
REMARK  100  A    between atoms: _252  and  _253
REMARK  101  A    between atoms: _252  and  _255
REMARK  102  A    between atoms: _255  and  _256
REMARK  103  A    between atoms: _259  and  _261
REMARK  104  A    between atoms: _261  and  _262
REMARK  105  A    between atoms: _261  and  _264
REMARK  106  A    between atoms: _264  and  _265
REMARK  107  A    between atoms: _268  and  _270
REMARK  108  A    between atoms: _270  and  _271
REMARK  109  A    between atoms: _270  and  _273
REMARK  110  A    between atoms: _276  and  _278
REMARK  111  A    between atoms: _278  and  _279
REMARK  112  A    between atoms: _278  and  _281
REMARK  113  A    between atoms: _281  and  _282
REMARK  114  A    between atoms: _288  and  _290
REMARK  115  A    between atoms: _290  and  _291
REMARK  116  A    between atoms: _290  and  _293
REMARK  117  A    between atoms: _293  and  _294
REMARK  118  A    between atoms: _300  and  _302
REMARK  119  A    between atoms: _302  and  _303
REMARK  120  A    between atoms: _305  and  _307
REMARK  121  A    between atoms: _307  and  _308
REMARK  122  A    between atoms: _307  and  _310
REMARK  123  A    between atoms: _310  and  _311
REMARK  124  A    between atoms: _311  and  _312
REMARK  125  A    between atoms: _315  and  _317
REMARK  126  A    between atoms: _317  and  _318
REMARK  127  A    between atoms: _317  and  _320
REMARK  128  A    between atoms: _320  and  _321
REMARK  129  A    between atoms: _321  and  _322
REMARK  130  A    between atoms: _322  and  _323
REMARK  131  A    between atoms: _323  and  _324
REMARK  132  A    between atoms: _328  and  _330
REMARK  133  A    between atoms: _330  and  _331
REMARK  134  A    between atoms: _330  and  _333
REMARK  135  A    between atoms: _333  and  _334
REMARK  136  A    between atoms: _337  and  _339
REMARK  137  A    between atoms: _339  and  _340
REMARK  138  A    between atoms: _339  and  _342
REMARK  139  A    between atoms: _342  and  _343
REMARK  140  A    between atoms: _343  and  _344
REMARK  141  A    between atoms: _349  and  _351
REMARK  142  A    between atoms: _351  and  _352
REMARK  143  A    between atoms: _351  and  _354
REMARK  144  A    between atoms: _354  and  _355
REMARK  145  A    between atoms: _358  and  _360
REMARK  146  A    between atoms: _360  and  _361
REMARK  147  A    between atoms: _363  and  _365
REMARK  148  A    between atoms: _365  and  _366
REMARK  149  A    between atoms: _365  and  _368
REMARK  150  A    between atoms: _372  and  _373
REMARK  151  A    between atoms: _378  and  _380
REMARK  152  A    between atoms: _380  and  _381
REMARK  153  A    between atoms: _380  and  _383
REMARK  154  A    between atoms: _383  and  _384
REMARK  155  A    between atoms: _387  and  _389
REMARK  156  A    between atoms: _389  and  _390
REMARK  157  A    between atoms: _389  and  _392
REMARK  158  A    between atoms: _395  and  _397
REMARK  159  A    between atoms: _397  and  _398
REMARK  160  A    between atoms: _397  and  _400
REMARK  161  A    between atoms: _400  and  _401
REMARK  162  A    between atoms: _401  and  _402
REMARK  163  A    between atoms: _402  and  _403
REMARK  164  A    between atoms: _412  and  _414
REMARK  165  A    between atoms: _414  and  _415
REMARK  166  A    between atoms: _414  and  _417
REMARK  167  A    between atoms: _417  and  _418
REMARK  168  A    between atoms: _421  and  _423
REMARK  169  A    between atoms: _423  and  _424
REMARK  170  A    between atoms: _427  and  _429
REMARK  171  A    between atoms: _429  and  _430
REMARK  172  A    between atoms: _429  and  _432
REMARK  173  A    between atoms: _432  and  _433
REMARK  174  A    between atoms: _433  and  _434
REMARK  175  A    between atoms: _436  and  _438
REMARK  176  A    between atoms: _438  and  _439
REMARK  177  A    between atoms: _438  and  _441
REMARK  178  A    between atoms: _441  and  _442
REMARK  179  A    between atoms: _444  and  _446
REMARK  180  A    between atoms: _446  and  _447
REMARK  181  A    between atoms: _446  and  _449
REMARK  182  A    between atoms: _449  and  _450
REMARK  183  A    between atoms: _452  and  _454
REMARK  184  A    between atoms: _454  and  _455
REMARK  185  A    between atoms: _454  and  _457
REMARK  186  A    between atoms: _457  and  _458
REMARK  187  A    between atoms: _458  and  _459
REMARK  188  A    between atoms: _459  and  _460
REMARK  189  A    between atoms: _469  and  _471
REMARK  190  A    between atoms: _471  and  _472
REMARK  191  A    between atoms: _471  and  _474
REMARK  192  A    between atoms: _474  and  _475
REMARK  193  A    between atoms: _480  and  _482
REMARK  194  A    between atoms: _482  and  _483
REMARK  195  A    between atoms: _482  and  _485
REMARK  196  A    between atoms: _485  and  _486
REMARK  197  A    between atoms: _486  and  _487
REMARK  198  A    between atoms: _487  and  _488
REMARK  199  A    between atoms: _497  and  _499
REMARK  200  A    between atoms: _499  and  _500
REMARK  201  A    between atoms: _499  and  _502
REMARK  202  A    between atoms: _502  and  _503
REMARK  203  A    between atoms: _503  and  _504
REMARK  204  A    between atoms: _504  and  _505
REMARK  205  A    between atoms: _514  and  _516
REMARK  206  A    between atoms: _516  and  _517
REMARK  207  A    between atoms: _516  and  _519
REMARK  208  A    between atoms: _519  and  _520
REMARK  209  A    between atoms: _523  and  _525
REMARK  210  A    between atoms: _525  and  _526
REMARK  211  A    between atoms: _525  and  _528
REMARK  212  A    between atoms: _528  and  _529
REMARK                            x       y       z     vdW  Elec       q    Type
REMARK                         _______ _______ _______ _____ _____    ______ ____
ROOT
ATOM      1  O   HOH     1      18.659   8.637   4.539  0.00  0.00    +0.000 OA
ENDROOT
TORSDOF 0
REMARK  Name = ../refined-set-2016/3ivc/3ivc_pocket.pdb
REMARK  212 active torsions:
REMARK  status: ('A' for Active; 'I' for Inactive)
REMARK    1  A    between atoms: _1  and  _3
REMARK    2  A    between atoms: _3  and  _4
REMARK    3  A    between atoms: _3  and  _6
REMARK    4  A    between atoms: _10  and  _11
REMARK    5  A    between atoms: _16  and  _18
REMARK    6  A    between atoms: _18  and  _19
REMARK    7  A    between atoms: _18  and  _21
REMARK    8  A    between atoms: _21  and  _22
REMARK    9  A    between atoms: _25  and  _27
REMARK   10  A    between atoms: _27  and  _28
REMARK   11  A    between atoms: _27  and  _30
REMARK   12  A    between atoms: _30  and  _31
REMARK   13  A    between atoms: _31  and  _32
REMARK   14  A    between atoms: _34  and  _36
REMARK   15  A    between atoms: _36  and  _37
REMARK   16  A    between atoms: _39  and  _41
REMARK   17  A    between atoms: _41  and  _42
REMARK   18  A    between atoms: _45  and  _47
REMARK   19  A    between atoms: _47  and  _48
REMARK   20  A    between atoms: _47  and  _50
REMARK   21  A    between atoms: _50  and  _51
REMARK   22  A    between atoms: _54  and  _56
REMARK   23  A    between atoms: _56  and  _57
REMARK   24  A    between atoms: _56  and  _59
REMARK   25  A    between atoms: _59  and  _60
REMARK   26  A    between atoms: _65  and  _67
REMARK   27  A    between atoms: _67  and  _68
REMARK   28  A    between atoms: _67  and  _70
REMARK   29  A    between atoms: _70  and  _71
REMARK   30  A    between atoms: _71  and  _72
REMARK   31  A    between atoms: _75  and  _77
REMARK   32  A    between atoms: _77  and  _78
REMARK   33  A    between atoms: _80  and  _82
REMARK   34  A    between atoms: _82  and  _83
REMARK   35  A    between atoms: _82  and  _85
REMARK   36  A    between atoms: _85  and  _86
REMARK   37  A    between atoms: _91  and  _93
REMARK   38  A    between atoms: _93  and  _94
REMARK   39  A    between atoms: _93  and  _96
REMARK   40  A    between atoms: _96  and  _97
REMARK   41  A    between atoms: _100  and  _102
REMARK   42  A    between atoms: _102  and  _103
REMARK   43  A    between atoms: _106  and  _108
REMARK   44  A    between atoms: _108  and  _109
REMARK   45  A    between atoms: _108  and  _111
REMARK   46  A    between atoms: _111  and  _112
REMARK   47  A    between atoms: _115  and  _117
REMARK   48  A    between atoms: _117  and  _118
REMARK   49  A    between atoms: _117  and  _120
REMARK   50  A    between atoms: _123  and  _125
REMARK   51  A    between atoms: _125  and  _126
REMARK   52  A    between atoms: _125  and  _128
REMARK   53  A    between atoms: _128  and  _129
REMARK   54  A    between atoms: _131  and  _133
REMARK   55  A    between atoms: _133  and  _134
REMARK   56  A    between atoms: _133  and  _136
REMARK   57  A    between atoms: _136  and  _137
REMARK   58  A    between atoms: _140  and  _142
REMARK   59  A    between atoms: _142  and  _143
REMARK   60  A    between atoms: _142  and  _145
REMARK   61  A    between atoms: _145  and  _146
REMARK   62  A    between atoms: _152  and  _154
REMARK   63  A    between atoms: _154  and  _155
REMARK   64  A    between atoms: _154  and  _157
REMARK   65  A    between atoms: _157  and  _158
REMARK   66  A    between atoms: _163  and  _165
REMARK   67  A    between atoms: _165  and  _166
REMARK   68  A    between atoms: _165  and  _168
REMARK   69  A    between atoms: _168  and  _169
REMARK   70  A    between atoms: _169  and  _170
REMARK   71  A    between atoms: _175  and  _177
REMARK   72  A    between atoms: _177  and  _178
REMARK   73  A    between atoms: _177  and  _180
REMARK   74  A    between atoms: _180  and  _181
REMARK   75  A    between atoms: _186  and  _187
REMARK   76  A    between atoms: _189  and  _191
REMARK   77  A    between atoms: _191  and  _192
REMARK   78  A    between atoms: _191  and  _194
REMARK   79  A    between atoms: _194  and  _195
REMARK   80  A    between atoms: _200  and  _202
REMARK   81  A    between atoms: _202  and  _203
REMARK   82  A    between atoms: _202  and  _205
REMARK   83  A    between atoms: _205  and  _206
REMARK   84  A    between atoms: _212  and  _214
REMARK   85  A    between atoms: _214  and  _215
REMARK   86  A    between atoms: _217  and  _219
REMARK   87  A    between atoms: _219  and  _220
REMARK   88  A    between atoms: _219  and  _222
REMARK   89  A    between atoms: _225  and  _227
REMARK   90  A    between atoms: _227  and  _228
REMARK   91  A    between atoms: _227  and  _230
REMARK   92  A    between atoms: _230  and  _231
REMARK   93  A    between atoms: _234  and  _236
REMARK   94  A    between atoms: _236  and  _237
REMARK   95  A    between atoms: _236  and  _239
REMARK   96  A    between atoms: _242  and  _244
REMARK   97  A    between atoms: _244  and  _245
REMARK   98  A    between atoms: _244  and  _247
REMARK   99  A    between atoms: _250  and  _252
REMARK  100  A    between atoms: _252  and  _253
REMARK  101  A    between atoms: _252  and  _255
REMARK  102  A    between atoms: _255  and  _256
REMARK  103  A    between atoms: _259  and  _261
REMARK  104  A    between atoms: _261  and  _262
REMARK  105  A    between atoms: _261  and  _264
REMARK  106  A    between atoms: _264  and  _265
REMARK  107  A    between atoms: _268  and  _270
REMARK  108  A    between atoms: _270  and  _271
REMARK  109  A    between atoms: _270  and  _273
REMARK  110  A    between atoms: _276  and  _278
REMARK  111  A    between atoms: _278  and  _279
REMARK  112  A    between atoms: _278  and  _281
REMARK  113  A    between atoms: _281  and  _282
REMARK  114  A    between atoms: _288  and  _290
REMARK  115  A    between atoms: _290  and  _291
REMARK  116  A    between atoms: _290  and  _293
REMARK  117  A    between atoms: _293  and  _294
REMARK  118  A    between atoms: _300  and  _302
REMARK  119  A    between atoms: _302  and  _303
REMARK  120  A    between atoms: _305  and  _307
REMARK  121  A    between atoms: _307  and  _308
REMARK  122  A    between atoms: _307  and  _310
REMARK  123  A    between atoms: _310  and  _311
REMARK  124  A    between atoms: _311  and  _312
REMARK  125  A    between atoms: _315  and  _317
REMARK  126  A    between atoms: _317  and  _318
REMARK  127  A    between atoms: _317  and  _320
REMARK  128  A    between atoms: _320  and  _321
REMARK  129  A    between atoms: _321  and  _322
REMARK  130  A    between atoms: _322  and  _323
REMARK  131  A    between atoms: _323  and  _324
REMARK  132  A    between atoms: _328  and  _330
REMARK  133  A    between atoms: _330  and  _331
REMARK  134  A    between atoms: _330  and  _333
REMARK  135  A    between atoms: _333  and  _334
REMARK  136  A    between atoms: _337  and  _339
REMARK  137  A    between atoms: _339  and  _340
REMARK  138  A    between atoms: _339  and  _342
REMARK  139  A    between atoms: _342  and  _343
REMARK  140  A    between atoms: _343  and  _344
REMARK  141  A    between atoms: _349  and  _351
REMARK  142  A    between atoms: _351  and  _352
REMARK  143  A    between atoms: _351  and  _354
REMARK  144  A    between atoms: _354  and  _355
REMARK  145  A    between atoms: _358  and  _360
REMARK  146  A    between atoms: _360  and  _361
REMARK  147  A    between atoms: _363  and  _365
REMARK  148  A    between atoms: _365  and  _366
REMARK  149  A    between atoms: _365  and  _368
REMARK  150  A    between atoms: _372  and  _373
REMARK  151  A    between atoms: _378  and  _380
REMARK  152  A    between atoms: _380  and  _381
REMARK  153  A    between atoms: _380  and  _383
REMARK  154  A    between atoms: _383  and  _384
REMARK  155  A    between atoms: _387  and  _389
REMARK  156  A    between atoms: _389  and  _390
REMARK  157  A    between atoms: _389  and  _392
REMARK  158  A    between atoms: _395  and  _397
REMARK  159  A    between atoms: _397  and  _398
REMARK  160  A    between atoms: _397  and  _400
REMARK  161  A    between atoms: _400  and  _401
REMARK  162  A    between atoms: _401  and  _402
REMARK  163  A    between atoms: _402  and  _403
REMARK  164  A    between atoms: _412  and  _414
REMARK  165  A    between atoms: _414  and  _415
REMARK  166  A    between atoms: _414  and  _417
REMARK  167  A    between atoms: _417  and  _418
REMARK  168  A    between atoms: _421  and  _423
REMARK  169  A    between atoms: _423  and  _424
REMARK  170  A    between atoms: _427  and  _429
REMARK  171  A    between atoms: _429  and  _430
REMARK  172  A    between atoms: _429  and  _432
REMARK  173  A    between atoms: _432  and  _433
REMARK  174  A    between atoms: _433  and  _434
REMARK  175  A    between atoms: _436  and  _438
REMARK  176  A    between atoms: _438  and  _439
REMARK  177  A    between atoms: _438  and  _441
REMARK  178  A    between atoms: _441  and  _442
REMARK  179  A    between atoms: _444  and  _446
REMARK  180  A    between atoms: _446  and  _447
REMARK  181  A    between atoms: _446  and  _449
REMARK  182  A    between atoms: _449  and  _450
REMARK  183  A    between atoms: _452  and  _454
REMARK  184  A    between atoms: _454  and  _455
REMARK  185  A    between atoms: _454  and  _457
REMARK  186  A    between atoms: _457  and  _458
REMARK  187  A    between atoms: _458  and  _459
REMARK  188  A    between atoms: _459  and  _460
REMARK  189  A    between atoms: _469  and  _471
REMARK  190  A    between atoms: _471  and  _472
REMARK  191  A    between atoms: _471  and  _474
REMARK  192  A    between atoms: _474  and  _475
REMARK  193  A    between atoms: _480  and  _482
REMARK  194  A    between atoms: _482  and  _483
REMARK  195  A    between atoms: _482  and  _485
REMARK  196  A    between atoms: _485  and  _486
REMARK  197  A    between atoms: _486  and  _487
REMARK  198  A    between atoms: _487  and  _488
REMARK  199  A    between atoms: _497  and  _499
REMARK  200  A    between atoms: _499  and  _500
REMARK  201  A    between atoms: _499  and  _502
REMARK  202  A    between atoms: _502  and  _503
REMARK  203  A    between atoms: _503  and  _504
REMARK  204  A    between atoms: _504  and  _505
REMARK  205  A    between atoms: _514  and  _516
REMARK  206  A    between atoms: _516  and  _517
REMARK  207  A    between atoms: _516  and  _519
REMARK  208  A    between atoms: _519  and  _520
REMARK  209  A    between atoms: _523  and  _525
REMARK  210  A    between atoms: _525  and  _526
REMARK  211  A    between atoms: _525  and  _528
REMARK  212  A    between atoms: _528  and  _529
REMARK                            x       y       z     vdW  Elec       q    Type
REMARK                         _______ _______ _______ _____ _____    ______ ____
ROOT
ATOM      1  O   HOH     1      16.338   3.367  -6.900  0.00  0.00    +0.000 OA
ENDROOT
TORSDOF 0
