REMARK  Name = ../refined-set-2016/3ery/3ery_pocket.pdb
REMARK  346 active torsions:
REMARK  status: ('A' for Active; 'I' for Inactive)
REMARK    1  A    between atoms: _1  and  _3
REMARK    2  A    between atoms: _3  and  _4
REMARK    3  A    between atoms: _3  and  _6
REMARK    4  A    between atoms: _6  and  _7
REMARK    5  A    between atoms: _7  and  _8
REMARK    6  A    between atoms: _10  and  _12
REMARK    7  A    between atoms: _12  and  _13
REMARK    8  A    between atoms: _12  and  _15
REMARK    9  A    between atoms: _15  and  _16
REMARK   10  A    between atoms: _16  and  _17
REMARK   11  A    between atoms: _17  and  _18
REMARK   12  A    between atoms: _27  and  _29
REMARK   13  A    between atoms: _29  and  _30
REMARK   14  A    between atoms: _29  and  _32
REMARK   15  A    between atoms: _32  and  _33
REMARK   16  A    between atoms: _38  and  _39
REMARK   17  A    between atoms: _41  and  _43
REMARK   18  A    between atoms: _43  and  _44
REMARK   19  A    between atoms: _43  and  _46
REMARK   20  A    between atoms: _46  and  _47
REMARK   21  A    between atoms: _52  and  _53
REMARK   22  A    between atoms: _55  and  _57
REMARK   23  A    between atoms: _57  and  _58
REMARK   24  A    between atoms: _57  and  _60
REMARK   25  A    between atoms: _60  and  _61
REMARK   26  A    between atoms: _61  and  _62
REMARK   27  A    between atoms: _65  and  _67
REMARK   28  A    between atoms: _67  and  _68
REMARK   29  A    between atoms: _67  and  _70
REMARK   30  A    between atoms: _70  and  _71
REMARK   31  A    between atoms: _76  and  _77
REMARK   32  A    between atoms: _79  and  _81
REMARK   33  A    between atoms: _81  and  _82
REMARK   34  A    between atoms: _81  and  _84
REMARK   35  A    between atoms: _84  and  _85
REMARK   36  A    between atoms: _87  and  _89
REMARK   37  A    between atoms: _89  and  _90
REMARK   38  A    between atoms: _89  and  _92
REMARK   39  A    between atoms: _95  and  _97
REMARK   40  A    between atoms: _97  and  _98
REMARK   41  A    between atoms: _100  and  _102
REMARK   42  A    between atoms: _102  and  _103
REMARK   43  A    between atoms: _102  and  _105
REMARK   44  A    between atoms: _105  and  _106
REMARK   45  A    between atoms: _112  and  _114
REMARK   46  A    between atoms: _114  and  _115
REMARK   47  A    between atoms: _114  and  _117
REMARK   48  A    between atoms: _120  and  _122
REMARK   49  A    between atoms: _122  and  _123
REMARK   50  A    between atoms: _122  and  _125
REMARK   51  A    between atoms: _125  and  _126
REMARK   52  A    between atoms: _132  and  _134
REMARK   53  A    between atoms: _134  and  _135
REMARK   54  A    between atoms: _134  and  _137
REMARK   55  A    between atoms: _137  and  _138
REMARK   56  A    between atoms: _143  and  _144
REMARK   57  A    between atoms: _146  and  _148
REMARK   58  A    between atoms: _148  and  _149
REMARK   59  A    between atoms: _148  and  _151
REMARK   60  A    between atoms: _151  and  _152
REMARK   61  A    between atoms: _152  and  _153
REMARK   62  A    between atoms: _156  and  _158
REMARK   63  A    between atoms: _158  and  _159
REMARK   64  A    between atoms: _158  and  _161
REMARK   65  A    between atoms: _161  and  _162
REMARK   66  A    between atoms: _162  and  _163
REMARK   67  A    between atoms: _166  and  _168
REMARK   68  A    between atoms: _168  and  _169
REMARK   69  A    between atoms: _168  and  _171
REMARK   70  A    between atoms: _171  and  _172
REMARK   71  A    between atoms: _177  and  _178
REMARK   72  A    between atoms: _180  and  _182
REMARK   73  A    between atoms: _182  and  _183
REMARK   74  A    between atoms: _182  and  _185
REMARK   75  A    between atoms: _185  and  _186
REMARK   76  A    between atoms: _196  and  _198
REMARK   77  A    between atoms: _198  and  _199
REMARK   78  A    between atoms: _198  and  _201
REMARK   79  A    between atoms: _201  and  _202
REMARK   80  A    between atoms: _202  and  _203
REMARK   81  A    between atoms: _206  and  _208
REMARK   82  A    between atoms: _208  and  _209
REMARK   83  A    between atoms: _208  and  _211
REMARK   84  A    between atoms: _211  and  _212
REMARK   85  A    between atoms: _212  and  _213
REMARK   86  A    between atoms: _213  and  _214
REMARK   87  A    between atoms: _223  and  _225
REMARK   88  A    between atoms: _225  and  _226
REMARK   89  A    between atoms: _225  and  _228
REMARK   90  A    between atoms: _228  and  _229
REMARK   91  A    between atoms: _232  and  _234
REMARK   92  A    between atoms: _234  and  _235
REMARK   93  A    between atoms: _234  and  _237
REMARK   94  A    between atoms: _237  and  _238
REMARK   95  A    between atoms: _241  and  _243
REMARK   96  A    between atoms: _243  and  _244
REMARK   97  A    between atoms: _243  and  _246
REMARK   98  A    between atoms: _246  and  _247
REMARK   99  A    between atoms: _247  and  _248
REMARK  100  A    between atoms: _253  and  _255
REMARK  101  A    between atoms: _255  and  _256
REMARK  102  A    between atoms: _255  and  _258
REMARK  103  A    between atoms: _261  and  _263
REMARK  104  A    between atoms: _263  and  _264
REMARK  105  A    between atoms: _267  and  _269
REMARK  106  A    between atoms: _269  and  _270
REMARK  107  A    between atoms: _269  and  _272
REMARK  108  A    between atoms: _272  and  _273
REMARK  109  A    between atoms: _273  and  _274
REMARK  110  A    between atoms: _274  and  _275
REMARK  111  A    between atoms: _275  and  _276
REMARK  112  A    between atoms: _280  and  _282
REMARK  113  A    between atoms: _282  and  _283
REMARK  114  A    between atoms: _285  and  _287
REMARK  115  A    between atoms: _287  and  _288
REMARK  116  A    between atoms: _287  and  _290
REMARK  117  A    between atoms: _290  and  _291
REMARK  118  A    between atoms: _291  and  _292
REMARK  119  A    between atoms: _297  and  _299
REMARK  120  A    between atoms: _299  and  _300
REMARK  121  A    between atoms: _299  and  _302
REMARK  122  A    between atoms: _302  and  _303
REMARK  123  A    between atoms: _303  and  _304
REMARK  124  A    between atoms: _309  and  _311
REMARK  125  A    between atoms: _311  and  _312
REMARK  126  A    between atoms: _311  and  _314
REMARK  127  A    between atoms: _314  and  _315
REMARK  128  A    between atoms: _325  and  _327
REMARK  129  A    between atoms: _327  and  _328
REMARK  130  A    between atoms: _327  and  _330
REMARK  131  A    between atoms: _330  and  _331
REMARK  132  A    between atoms: _337  and  _339
REMARK  133  A    between atoms: _339  and  _340
REMARK  134  A    between atoms: _339  and  _342
REMARK  135  A    between atoms: _345  and  _347
REMARK  136  A    between atoms: _347  and  _348
REMARK  137  A    between atoms: _347  and  _350
REMARK  138  A    between atoms: _350  and  _351
REMARK  139  A    between atoms: _356  and  _358
REMARK  140  A    between atoms: _358  and  _359
REMARK  141  A    between atoms: _358  and  _361
REMARK  142  A    between atoms: _361  and  _362
REMARK  143  A    between atoms: _365  and  _367
REMARK  144  A    between atoms: _367  and  _368
REMARK  145  A    between atoms: _367  and  _370
REMARK  146  A    between atoms: _370  and  _371
REMARK  147  A    between atoms: _371  and  _372
REMARK  148  A    between atoms: _372  and  _373
REMARK  149  A    between atoms: _382  and  _384
REMARK  150  A    between atoms: _384  and  _385
REMARK  151  A    between atoms: _384  and  _387
REMARK  152  A    between atoms: _387  and  _388
REMARK  153  A    between atoms: _391  and  _393
REMARK  154  A    between atoms: _393  and  _394
REMARK  155  A    between atoms: _393  and  _396
REMARK  156  A    between atoms: _396  and  _397
REMARK  157  A    between atoms: _400  and  _402
REMARK  158  A    between atoms: _402  and  _403
REMARK  159  A    between atoms: _402  and  _405
REMARK  160  A    between atoms: _405  and  _406
REMARK  161  A    between atoms: _409  and  _411
REMARK  162  A    between atoms: _411  and  _412
REMARK  163  A    between atoms: _411  and  _414
REMARK  164  A    between atoms: _414  and  _415
REMARK  165  A    between atoms: _420  and  _421
REMARK  166  A    between atoms: _423  and  _425
REMARK  167  A    between atoms: _425  and  _426
REMARK  168  A    between atoms: _425  and  _428
REMARK  169  A    between atoms: _428  and  _429
REMARK  170  A    between atoms: _432  and  _434
REMARK  171  A    between atoms: _434  and  _435
REMARK  172  A    between atoms: _434  and  _437
REMARK  173  A    between atoms: _437  and  _438
REMARK  174  A    between atoms: _438  and  _439
REMARK  175  A    between atoms: _444  and  _446
REMARK  176  A    between atoms: _446  and  _447
REMARK  177  A    between atoms: _446  and  _449
REMARK  178  A    between atoms: _449  and  _450
REMARK  179  A    between atoms: _450  and  _451
REMARK  180  A    between atoms: _451  and  _452
REMARK  181  A    between atoms: _461  and  _463
REMARK  182  A    between atoms: _463  and  _464
REMARK  183  A    between atoms: _463  and  _466
REMARK  184  A    between atoms: _466  and  _467
REMARK  185  A    between atoms: _472  and  _473
REMARK  186  A    between atoms: _475  and  _477
REMARK  187  A    between atoms: _477  and  _478
REMARK  188  A    between atoms: _480  and  _482
REMARK  189  A    between atoms: _482  and  _483
REMARK  190  A    between atoms: _482  and  _485
REMARK  191  A    between atoms: _485  and  _486
REMARK  192  A    between atoms: _491  and  _492
REMARK  193  A    between atoms: _494  and  _496
REMARK  194  A    between atoms: _496  and  _497
REMARK  195  A    between atoms: _496  and  _499
REMARK  196  A    between atoms: _499  and  _500
REMARK  197  A    between atoms: _500  and  _501
REMARK  198  A    between atoms: _504  and  _506
REMARK  199  A    between atoms: _506  and  _507
REMARK  200  A    between atoms: _506  and  _509
REMARK  201  A    between atoms: _509  and  _510
REMARK  202  A    between atoms: _516  and  _518
REMARK  203  A    between atoms: _518  and  _519
REMARK  204  A    between atoms: _522  and  _524
REMARK  205  A    between atoms: _524  and  _525
REMARK  206  A    between atoms: _524  and  _527
REMARK  207  A    between atoms: _527  and  _528
REMARK  208  A    between atoms: _533  and  _534
REMARK  209  A    between atoms: _536  and  _538
REMARK  210  A    between atoms: _538  and  _539
REMARK  211  A    between atoms: _538  and  _541
REMARK  212  A    between atoms: _541  and  _542
REMARK  213  A    between atoms: _547  and  _548
REMARK  214  A    between atoms: _550  and  _552
REMARK  215  A    between atoms: _552  and  _553
REMARK  216  A    between atoms: _552  and  _555
REMARK  217  A    between atoms: _555  and  _556
REMARK  218  A    between atoms: _559  and  _561
REMARK  219  A    between atoms: _561  and  _562
REMARK  220  A    between atoms: _561  and  _564
REMARK  221  A    between atoms: _564  and  _565
REMARK  222  A    between atoms: _575  and  _577
REMARK  223  A    between atoms: _577  and  _578
REMARK  224  A    between atoms: _581  and  _583
REMARK  225  A    between atoms: _583  and  _584
REMARK  226  A    between atoms: _587  and  _589
REMARK  227  A    between atoms: _589  and  _590
REMARK  228  A    between atoms: _589  and  _592
REMARK  229  A    between atoms: _592  and  _593
REMARK  230  A    between atoms: _593  and  _594
REMARK  231  A    between atoms: _599  and  _601
REMARK  232  A    between atoms: _601  and  _602
REMARK  233  A    between atoms: _601  and  _604
REMARK  234  A    between atoms: _604  and  _605
REMARK  235  A    between atoms: _608  and  _610
REMARK  236  A    between atoms: _610  and  _611
REMARK  237  A    between atoms: _610  and  _613
REMARK  238  A    between atoms: _613  and  _614
REMARK  239  A    between atoms: _617  and  _619
REMARK  240  A    between atoms: _619  and  _620
REMARK  241  A    between atoms: _619  and  _622
REMARK  242  A    between atoms: _622  and  _623
REMARK  243  A    between atoms: _623  and  _624
REMARK  244  A    between atoms: _624  and  _625
REMARK  245  A    between atoms: _634  and  _636
REMARK  246  A    between atoms: _636  and  _637
REMARK  247  A    between atoms: _636  and  _639
REMARK  248  A    between atoms: _639  and  _640
REMARK  249  A    between atoms: _640  and  _641
REMARK  250  A    between atoms: _641  and  _642
REMARK  251  A    between atoms: _651  and  _653
REMARK  252  A    between atoms: _653  and  _654
REMARK  253  A    between atoms: _653  and  _656
REMARK  254  A    between atoms: _656  and  _657
REMARK  255  A    between atoms: _657  and  _658
REMARK  256  A    between atoms: _658  and  _659
REMARK  257  A    between atoms: _659  and  _660
REMARK  258  A    between atoms: _664  and  _666
REMARK  259  A    between atoms: _666  and  _667
REMARK  260  A    between atoms: _666  and  _669
REMARK  261  A    between atoms: _669  and  _670
REMARK  262  A    between atoms: _680  and  _682
REMARK  263  A    between atoms: _682  and  _683
REMARK  264  A    between atoms: _682  and  _685
REMARK  265  A    between atoms: _685  and  _686
REMARK  266  A    between atoms: _686  and  _687
REMARK  267  A    between atoms: _690  and  _692
REMARK  268  A    between atoms: _692  and  _693
REMARK  269  A    between atoms: _692  and  _695
REMARK  270  A    between atoms: _695  and  _696
REMARK  271  A    between atoms: _696  and  _697
REMARK  272  A    between atoms: _702  and  _704
REMARK  273  A    between atoms: _704  and  _705
REMARK  274  A    between atoms: _708  and  _710
REMARK  275  A    between atoms: _710  and  _711
REMARK  276  A    between atoms: _713  and  _715
REMARK  277  A    between atoms: _715  and  _716
REMARK  278  A    between atoms: _719  and  _721
REMARK  279  A    between atoms: _721  and  _722
REMARK  280  A    between atoms: _725  and  _727
REMARK  281  A    between atoms: _727  and  _728
REMARK  282  A    between atoms: _727  and  _730
REMARK  283  A    between atoms: _730  and  _731
REMARK  284  A    between atoms: _731  and  _732
REMARK  285  A    between atoms: _735  and  _737
REMARK  286  A    between atoms: _737  and  _738
REMARK  287  A    between atoms: _737  and  _740
REMARK  288  A    between atoms: _740  and  _741
REMARK  289  A    between atoms: _746  and  _747
REMARK  290  A    between atoms: _749  and  _751
REMARK  291  A    between atoms: _751  and  _752
REMARK  292  A    between atoms: _751  and  _754
REMARK  293  A    between atoms: _754  and  _755
REMARK  294  A    between atoms: _760  and  _761
REMARK  295  A    between atoms: _763  and  _765
REMARK  296  A    between atoms: _765  and  _766
REMARK  297  A    between atoms: _765  and  _768
REMARK  298  A    between atoms: _768  and  _769
REMARK  299  A    between atoms: _769  and  _770
REMARK  300  A    between atoms: _770  and  _771
REMARK  301  A    between atoms: _780  and  _782
REMARK  302  A    between atoms: _782  and  _783
REMARK  303  A    between atoms: _786  and  _788
REMARK  304  A    between atoms: _788  and  _789
REMARK  305  A    between atoms: _788  and  _791
REMARK  306  A    between atoms: _791  and  _792
REMARK  307  A    between atoms: _797  and  _798
REMARK  308  A    between atoms: _800  and  _802
REMARK  309  A    between atoms: _802  and  _803
REMARK  310  A    between atoms: _802  and  _805
REMARK  311  A    between atoms: _805  and  _806
REMARK  312  A    between atoms: _809  and  _811
REMARK  313  A    between atoms: _811  and  _812
REMARK  314  A    between atoms: _811  and  _814
REMARK  315  A    between atoms: _814  and  _815
REMARK  316  A    between atoms: _815  and  _816
REMARK  317  A    between atoms: _819  and  _821
REMARK  318  A    between atoms: _821  and  _822
REMARK  319  A    between atoms: _821  and  _824
REMARK  320  A    between atoms: _826  and  _828
REMARK  321  A    between atoms: _828  and  _829
REMARK  322  A    between atoms: _828  and  _831
REMARK  323  A    between atoms: _834  and  _836
REMARK  324  A    between atoms: _836  and  _837
REMARK  325  A    between atoms: _836  and  _839
REMARK  326  A    between atoms: _839  and  _840
REMARK  327  A    between atoms: _840  and  _841
REMARK  328  A    between atoms: _844  and  _846
REMARK  329  A    between atoms: _846  and  _847
REMARK  330  A    between atoms: _846  and  _849
REMARK  331  A    between atoms: _849  and  _850
REMARK  332  A    between atoms: _860  and  _862
REMARK  333  A    between atoms: _862  and  _863
REMARK  334  A    between atoms: _862  and  _865
REMARK  335  A    between atoms: _865  and  _866
REMARK  336  A    between atoms: _869  and  _871
REMARK  337  A    between atoms: _871  and  _872
REMARK  338  A    between atoms: _871  and  _874
REMARK  339  A    between atoms: _874  and  _875
REMARK  340  A    between atoms: _875  and  _876
REMARK  341  A    between atoms: _876  and  _877
REMARK  342  A    between atoms: _886  and  _888
REMARK  343  A    between atoms: _888  and  _889
REMARK  344  A    between atoms: _888  and  _891
REMARK  345  A    between atoms: _891  and  _892
REMARK  346  A    between atoms: _897  and  _898
REMARK                            x       y       z     vdW  Elec       q    Type
REMARK                         _______ _______ _______ _____ _____    ______ ____
ROOT
ATOM      1  CA  TYR A   3      -2.404 -11.264  -9.744  0.00  0.00    +0.153 C 
ENDROOT
BRANCH   1   3
ATOM      2  C   ARG A   2      -2.808  -9.495 -11.370  0.00  0.00    +0.241 C 
ATOM      3  N   TYR A   3      -2.253  -9.905 -10.237  0.00  0.00    -0.297 N 
ATOM      4  H   TYR A   3      -1.690  -9.230  -9.682  0.00  0.00    +0.150 HD
ATOM      5  O   ARG A   2      -3.434 -10.240 -12.115  0.00  0.00    -0.273 OA
BRANCH   2   6
ATOM      6  CA  ARG A   2      -2.632  -8.015 -11.717  0.00  0.00    +0.149 C 
BRANCH   6   9
ATOM      7  C   MET A   1      -1.590  -7.054 -13.730  0.00  0.00    +0.238 C 
ATOM      8  O   MET A   1      -0.785  -6.370 -13.093  0.00  0.00    -0.274 OA
ATOM      9  N   ARG A   2      -2.496  -7.849 -13.163  0.00  0.00    -0.297 N 
ATOM     10  H   ARG A   2      -3.141  -8.380 -13.782  0.00  0.00    +0.150 HD
BRANCH   7  11
ATOM     11  CA  MET A   1      -1.622  -6.999 -15.255  0.00  0.00    +0.146 C 
BRANCH  11  12
ATOM     12  N   MET A   1      -1.563  -5.592 -15.587  0.00  0.00    -0.238 NA
ATOM     13  H   MET A   1      -0.945  -4.969 -15.029  0.00  0.00    +0.142 HD
ENDBRANCH  11  12
BRANCH  11  14
ATOM     14  CB  MET A   1      -0.445  -7.771 -15.855  0.00  0.00    +0.038 C 
BRANCH  14  15
ATOM     15  CG  MET A   1      -0.473  -9.268 -15.550  0.00  0.00    +0.060 C 
BRANCH  15  16
ATOM     16  SD  MET A   1       0.568 -10.273 -16.657  0.00  0.00    -0.139 S 
ATOM     17  CE  MET A   1       2.161 -10.166 -15.839  0.00  0.00    +0.069 C 
ENDBRANCH  15  16
ENDBRANCH  14  15
ENDBRANCH  11  14
ENDBRANCH   7  11
ENDBRANCH   6   9
BRANCH   6  18
ATOM     18  CB  ARG A   2      -3.885  -7.288 -11.200  0.00  0.00    +0.033 C 
BRANCH  18  19
ATOM     19  CG  ARG A   2      -3.879  -5.771 -11.269  0.00  0.00    +0.045 C 
BRANCH  19  20
ATOM     20  CD  ARG A   2      -2.900  -5.185 -10.272  0.00  0.00    +0.174 C 
BRANCH  20  21
ATOM     21  NE  ARG A   2      -3.002  -3.728 -10.167  0.00  0.00    -0.265 N 
ATOM     22  CZ  ARG A   2      -4.076  -3.081  -9.720  0.00  0.00    +0.342 C 
ATOM     23  NH2 ARG A   2      -5.151  -3.758  -9.340  0.00  0.00    -0.292 N 
ATOM     24 HH21 ARG A   2      -5.989  -3.250  -8.991  0.00  0.00    +0.255 HD
ATOM     25 HH22 ARG A   2      -5.156  -4.797  -9.391  0.00  0.00    +0.255 HD
ATOM     26  NH1 ARG A   2      -4.068  -1.756  -9.630  0.00  0.00    -0.292 N 
ATOM     27 HH11 ARG A   2      -4.909  -1.253  -9.280  0.00  0.00    +0.255 HD
ATOM     28 HH12 ARG A   2      -3.221  -1.221  -9.909  0.00  0.00    +0.255 HD
ATOM     29  HE  ARG A   2      -2.181  -3.161 -10.461  0.00  0.00    +0.259 HD
ENDBRANCH  20  21
ENDBRANCH  19  20
ENDBRANCH  18  19
ENDBRANCH   6  18
ENDBRANCH   2   6
ENDBRANCH   1   3
BRANCH   1  30
ATOM     30  C   TYR A   3      -2.860 -11.123  -8.296  0.00  0.00    +0.241 C 
ATOM     31  O   TYR A   3      -2.295 -10.331  -7.531  0.00  0.00    -0.273 OA
ATOM     32  N   TYR A   4      -3.889 -11.873  -7.927  0.00  0.00    -0.297 N 
ATOM     33  H   TYR A   4      -4.336 -12.500  -8.626  0.00  0.00    +0.150 HD
BRANCH  32  34
ATOM     34  CA  TYR A   4      -4.410 -11.841  -6.562  0.00  0.00    +0.153 C 
BRANCH  34  35
ATOM     35  C   TYR A   4      -4.288 -13.235  -5.977  0.00  0.00    +0.241 C 
ATOM     36  N   GLU A   5      -3.611 -13.346  -4.844  0.00  0.00    -0.298 N 
ATOM     37  H   GLU A   5      -3.203 -12.498  -4.402  0.00  0.00    +0.150 HD
ATOM     38  O   TYR A   4      -4.793 -14.197  -6.546  0.00  0.00    -0.273 OA
BRANCH  36  39
ATOM     39  CA  GLU A   5      -3.434 -14.636  -4.217  0.00  0.00    +0.137 C 
BRANCH  39  40
ATOM     40  C   GLU A   5      -3.954 -14.518  -2.788  0.00  0.00    +0.227 C 
ATOM     41  O   GLU A   5      -3.675 -13.538  -2.092  0.00  0.00    -0.286 OA
ENDBRANCH  39  40
BRANCH  39  42
ATOM     42  CB  GLU A   5      -1.946 -15.040  -4.270  0.00  0.00    +0.039 C 
BRANCH  42  43
ATOM     43  CG  GLU A   5      -1.334 -14.843  -5.686  0.00  0.00    +0.116 C 
BRANCH  43  44
ATOM     44  CD  GLU A   5       0.130 -15.300  -5.839  0.00  0.00    +0.365 C 
ATOM     45  OE2 GLU A   5       0.985 -14.947  -5.003  0.00  0.00    -0.246 OA
ATOM     46  OE1 GLU A   5       0.426 -16.004  -6.826  0.00  0.00    -0.246 OA
ENDBRANCH  43  44
ENDBRANCH  42  43
ENDBRANCH  39  42
ENDBRANCH  36  39
ENDBRANCH  34  35
BRANCH  34  47
ATOM     47  CB  TYR A   4      -5.880 -11.425  -6.564  0.00  0.00    +0.055 C 
BRANCH  47  48
ATOM     48  CG  TYR A   4      -6.108  -9.989  -6.946  0.00  0.00    -0.020 A 
ATOM     49  CD2 TYR A   4      -6.028  -8.969  -5.997  0.00  0.00    -0.001 A 
ATOM     50  CE2 TYR A   4      -6.240  -7.638  -6.357  0.00  0.00    +0.036 A 
ATOM     51  CZ  TYR A   4      -6.534  -7.325  -7.670  0.00  0.00    +0.134 A 
ATOM     52  CE1 TYR A   4      -6.613  -8.321  -8.627  0.00  0.00    +0.036 A 
ATOM     53  CD1 TYR A   4      -6.402  -9.643  -8.260  0.00  0.00    -0.001 A 
BRANCH  51  54
ATOM     54  OH  TYR A   4      -6.779  -6.026  -8.035  0.00  0.00    -0.506 OA
ATOM     55  HH  TYR A   4      -6.684  -5.439  -7.244  0.00  0.00    +0.292 HD
ENDBRANCH  51  54
ENDBRANCH  47  48
ENDBRANCH  34  47
ENDBRANCH  32  34
ENDBRANCH   1  30
BRANCH   1  56
ATOM     56  CB  TYR A   3      -1.079 -12.029  -9.783  0.00  0.00    +0.055 C 
BRANCH  56  57
ATOM     57  CG  TYR A   3      -0.727 -12.571 -11.141  0.00  0.00    -0.020 A 
ATOM     58  CD2 TYR A   3      -1.309 -13.743 -11.607  0.00  0.00    -0.001 A 
ATOM     59  CE2 TYR A   3      -1.013 -14.235 -12.873  0.00  0.00    +0.036 A 
ATOM     60  CZ  TYR A   3      -0.121 -13.552 -13.682  0.00  0.00    +0.134 A 
ATOM     61  CE1 TYR A   3       0.472 -12.382 -13.241  0.00  0.00    +0.036 A 
ATOM     62  CD1 TYR A   3       0.166 -11.898 -11.973  0.00  0.00    -0.001 A 
BRANCH  60  63
ATOM     63  OH  TYR A   3       0.187 -14.052 -14.926  0.00  0.00    -0.506 OA
ATOM     64  HH  TYR A   3       0.834 -13.449 -15.372  0.00  0.00    +0.292 HD
ENDBRANCH  60  63
ENDBRANCH  56  57
ENDBRANCH   1  56
TORSDOF 26
REMARK  Name = ../refined-set-2016/3ery/3ery_pocket.pdb
REMARK  346 active torsions:
REMARK  status: ('A' for Active; 'I' for Inactive)
REMARK    1  A    between atoms: _1  and  _3
REMARK    2  A    between atoms: _3  and  _4
REMARK    3  A    between atoms: _3  and  _6
REMARK    4  A    between atoms: _6  and  _7
REMARK    5  A    between atoms: _7  and  _8
REMARK    6  A    between atoms: _10  and  _12
REMARK    7  A    between atoms: _12  and  _13
REMARK    8  A    between atoms: _12  and  _15
REMARK    9  A    between atoms: _15  and  _16
REMARK   10  A    between atoms: _16  and  _17
REMARK   11  A    between atoms: _17  and  _18
REMARK   12  A    between atoms: _27  and  _29
REMARK   13  A    between atoms: _29  and  _30
REMARK   14  A    between atoms: _29  and  _32
REMARK   15  A    between atoms: _32  and  _33
REMARK   16  A    between atoms: _38  and  _39
REMARK   17  A    between atoms: _41  and  _43
REMARK   18  A    between atoms: _43  and  _44
REMARK   19  A    between atoms: _43  and  _46
REMARK   20  A    between atoms: _46  and  _47
REMARK   21  A    between atoms: _52  and  _53
REMARK   22  A    between atoms: _55  and  _57
REMARK   23  A    between atoms: _57  and  _58
REMARK   24  A    between atoms: _57  and  _60
REMARK   25  A    between atoms: _60  and  _61
REMARK   26  A    between atoms: _61  and  _62
REMARK   27  A    between atoms: _65  and  _67
REMARK   28  A    between atoms: _67  and  _68
REMARK   29  A    between atoms: _67  and  _70
REMARK   30  A    between atoms: _70  and  _71
REMARK   31  A    between atoms: _76  and  _77
REMARK   32  A    between atoms: _79  and  _81
REMARK   33  A    between atoms: _81  and  _82
REMARK   34  A    between atoms: _81  and  _84
REMARK   35  A    between atoms: _84  and  _85
REMARK   36  A    between atoms: _87  and  _89
REMARK   37  A    between atoms: _89  and  _90
REMARK   38  A    between atoms: _89  and  _92
REMARK   39  A    between atoms: _95  and  _97
REMARK   40  A    between atoms: _97  and  _98
REMARK   41  A    between atoms: _100  and  _102
REMARK   42  A    between atoms: _102  and  _103
REMARK   43  A    between atoms: _102  and  _105
REMARK   44  A    between atoms: _105  and  _106
REMARK   45  A    between atoms: _112  and  _114
REMARK   46  A    between atoms: _114  and  _115
REMARK   47  A    between atoms: _114  and  _117
REMARK   48  A    between atoms: _120  and  _122
REMARK   49  A    between atoms: _122  and  _123
REMARK   50  A    between atoms: _122  and  _125
REMARK   51  A    between atoms: _125  and  _126
REMARK   52  A    between atoms: _132  and  _134
REMARK   53  A    between atoms: _134  and  _135
REMARK   54  A    between atoms: _134  and  _137
REMARK   55  A    between atoms: _137  and  _138
REMARK   56  A    between atoms: _143  and  _144
REMARK   57  A    between atoms: _146  and  _148
REMARK   58  A    between atoms: _148  and  _149
REMARK   59  A    between atoms: _148  and  _151
REMARK   60  A    between atoms: _151  and  _152
REMARK   61  A    between atoms: _152  and  _153
REMARK   62  A    between atoms: _156  and  _158
REMARK   63  A    between atoms: _158  and  _159
REMARK   64  A    between atoms: _158  and  _161
REMARK   65  A    between atoms: _161  and  _162
REMARK   66  A    between atoms: _162  and  _163
REMARK   67  A    between atoms: _166  and  _168
REMARK   68  A    between atoms: _168  and  _169
REMARK   69  A    between atoms: _168  and  _171
REMARK   70  A    between atoms: _171  and  _172
REMARK   71  A    between atoms: _177  and  _178
REMARK   72  A    between atoms: _180  and  _182
REMARK   73  A    between atoms: _182  and  _183
REMARK   74  A    between atoms: _182  and  _185
REMARK   75  A    between atoms: _185  and  _186
REMARK   76  A    between atoms: _196  and  _198
REMARK   77  A    between atoms: _198  and  _199
REMARK   78  A    between atoms: _198  and  _201
REMARK   79  A    between atoms: _201  and  _202
REMARK   80  A    between atoms: _202  and  _203
REMARK   81  A    between atoms: _206  and  _208
REMARK   82  A    between atoms: _208  and  _209
REMARK   83  A    between atoms: _208  and  _211
REMARK   84  A    between atoms: _211  and  _212
REMARK   85  A    between atoms: _212  and  _213
REMARK   86  A    between atoms: _213  and  _214
REMARK   87  A    between atoms: _223  and  _225
REMARK   88  A    between atoms: _225  and  _226
REMARK   89  A    between atoms: _225  and  _228
REMARK   90  A    between atoms: _228  and  _229
REMARK   91  A    between atoms: _232  and  _234
REMARK   92  A    between atoms: _234  and  _235
REMARK   93  A    between atoms: _234  and  _237
REMARK   94  A    between atoms: _237  and  _238
REMARK   95  A    between atoms: _241  and  _243
REMARK   96  A    between atoms: _243  and  _244
REMARK   97  A    between atoms: _243  and  _246
REMARK   98  A    between atoms: _246  and  _247
REMARK   99  A    between atoms: _247  and  _248
REMARK  100  A    between atoms: _253  and  _255
REMARK  101  A    between atoms: _255  and  _256
REMARK  102  A    between atoms: _255  and  _258
REMARK  103  A    between atoms: _261  and  _263
REMARK  104  A    between atoms: _263  and  _264
REMARK  105  A    between atoms: _267  and  _269
REMARK  106  A    between atoms: _269  and  _270
REMARK  107  A    between atoms: _269  and  _272
REMARK  108  A    between atoms: _272  and  _273
REMARK  109  A    between atoms: _273  and  _274
REMARK  110  A    between atoms: _274  and  _275
REMARK  111  A    between atoms: _275  and  _276
REMARK  112  A    between atoms: _280  and  _282
REMARK  113  A    between atoms: _282  and  _283
REMARK  114  A    between atoms: _285  and  _287
REMARK  115  A    between atoms: _287  and  _288
REMARK  116  A    between atoms: _287  and  _290
REMARK  117  A    between atoms: _290  and  _291
REMARK  118  A    between atoms: _291  and  _292
REMARK  119  A    between atoms: _297  and  _299
REMARK  120  A    between atoms: _299  and  _300
REMARK  121  A    between atoms: _299  and  _302
REMARK  122  A    between atoms: _302  and  _303
REMARK  123  A    between atoms: _303  and  _304
REMARK  124  A    between atoms: _309  and  _311
REMARK  125  A    between atoms: _311  and  _312
REMARK  126  A    between atoms: _311  and  _314
REMARK  127  A    between atoms: _314  and  _315
REMARK  128  A    between atoms: _325  and  _327
REMARK  129  A    between atoms: _327  and  _328
REMARK  130  A    between atoms: _327  and  _330
REMARK  131  A    between atoms: _330  and  _331
REMARK  132  A    between atoms: _337  and  _339
REMARK  133  A    between atoms: _339  and  _340
REMARK  134  A    between atoms: _339  and  _342
REMARK  135  A    between atoms: _345  and  _347
REMARK  136  A    between atoms: _347  and  _348
REMARK  137  A    between atoms: _347  and  _350
REMARK  138  A    between atoms: _350  and  _351
REMARK  139  A    between atoms: _356  and  _358
REMARK  140  A    between atoms: _358  and  _359
REMARK  141  A    between atoms: _358  and  _361
REMARK  142  A    between atoms: _361  and  _362
REMARK  143  A    between atoms: _365  and  _367
REMARK  144  A    between atoms: _367  and  _368
REMARK  145  A    between atoms: _367  and  _370
REMARK  146  A    between atoms: _370  and  _371
REMARK  147  A    between atoms: _371  and  _372
REMARK  148  A    between atoms: _372  and  _373
REMARK  149  A    between atoms: _382  and  _384
REMARK  150  A    between atoms: _384  and  _385
REMARK  151  A    between atoms: _384  and  _387
REMARK  152  A    between atoms: _387  and  _388
REMARK  153  A    between atoms: _391  and  _393
REMARK  154  A    between atoms: _393  and  _394
REMARK  155  A    between atoms: _393  and  _396
REMARK  156  A    between atoms: _396  and  _397
REMARK  157  A    between atoms: _400  and  _402
REMARK  158  A    between atoms: _402  and  _403
REMARK  159  A    between atoms: _402  and  _405
REMARK  160  A    between atoms: _405  and  _406
REMARK  161  A    between atoms: _409  and  _411
REMARK  162  A    between atoms: _411  and  _412
REMARK  163  A    between atoms: _411  and  _414
REMARK  164  A    between atoms: _414  and  _415
REMARK  165  A    between atoms: _420  and  _421
REMARK  166  A    between atoms: _423  and  _425
REMARK  167  A    between atoms: _425  and  _426
REMARK  168  A    between atoms: _425  and  _428
REMARK  169  A    between atoms: _428  and  _429
REMARK  170  A    between atoms: _432  and  _434
REMARK  171  A    between atoms: _434  and  _435
REMARK  172  A    between atoms: _434  and  _437
REMARK  173  A    between atoms: _437  and  _438
REMARK  174  A    between atoms: _438  and  _439
REMARK  175  A    between atoms: _444  and  _446
REMARK  176  A    between atoms: _446  and  _447
REMARK  177  A    between atoms: _446  and  _449
REMARK  178  A    between atoms: _449  and  _450
REMARK  179  A    between atoms: _450  and  _451
REMARK  180  A    between atoms: _451  and  _452
REMARK  181  A    between atoms: _461  and  _463
REMARK  182  A    between atoms: _463  and  _464
REMARK  183  A    between atoms: _463  and  _466
REMARK  184  A    between atoms: _466  and  _467
REMARK  185  A    between atoms: _472  and  _473
REMARK  186  A    between atoms: _475  and  _477
REMARK  187  A    between atoms: _477  and  _478
REMARK  188  A    between atoms: _480  and  _482
REMARK  189  A    between atoms: _482  and  _483
REMARK  190  A    between atoms: _482  and  _485
REMARK  191  A    between atoms: _485  and  _486
REMARK  192  A    between atoms: _491  and  _492
REMARK  193  A    between atoms: _494  and  _496
REMARK  194  A    between atoms: _496  and  _497
REMARK  195  A    between atoms: _496  and  _499
REMARK  196  A    between atoms: _499  and  _500
REMARK  197  A    between atoms: _500  and  _501
REMARK  198  A    between atoms: _504  and  _506
REMARK  199  A    between atoms: _506  and  _507
REMARK  200  A    between atoms: _506  and  _509
REMARK  201  A    between atoms: _509  and  _510
REMARK  202  A    between atoms: _516  and  _518
REMARK  203  A    between atoms: _518  and  _519
REMARK  204  A    between atoms: _522  and  _524
REMARK  205  A    between atoms: _524  and  _525
REMARK  206  A    between atoms: _524  and  _527
REMARK  207  A    between atoms: _527  and  _528
REMARK  208  A    between atoms: _533  and  _534
REMARK  209  A    between atoms: _536  and  _538
REMARK  210  A    between atoms: _538  and  _539
REMARK  211  A    between atoms: _538  and  _541
REMARK  212  A    between atoms: _541  and  _542
REMARK  213  A    between atoms: _547  and  _548
REMARK  214  A    between atoms: _550  and  _552
REMARK  215  A    between atoms: _552  and  _553
REMARK  216  A    between atoms: _552  and  _555
REMARK  217  A    between atoms: _555  and  _556
REMARK  218  A    between atoms: _559  and  _561
REMARK  219  A    between atoms: _561  and  _562
REMARK  220  A    between atoms: _561  and  _564
REMARK  221  A    between atoms: _564  and  _565
REMARK  222  A    between atoms: _575  and  _577
REMARK  223  A    between atoms: _577  and  _578
REMARK  224  A    between atoms: _581  and  _583
REMARK  225  A    between atoms: _583  and  _584
REMARK  226  A    between atoms: _587  and  _589
REMARK  227  A    between atoms: _589  and  _590
REMARK  228  A    between atoms: _589  and  _592
REMARK  229  A    between atoms: _592  and  _593
REMARK  230  A    between atoms: _593  and  _594
REMARK  231  A    between atoms: _599  and  _601
REMARK  232  A    between atoms: _601  and  _602
REMARK  233  A    between atoms: _601  and  _604
REMARK  234  A    between atoms: _604  and  _605
REMARK  235  A    between atoms: _608  and  _610
REMARK  236  A    between atoms: _610  and  _611
REMARK  237  A    between atoms: _610  and  _613
REMARK  238  A    between atoms: _613  and  _614
REMARK  239  A    between atoms: _617  and  _619
REMARK  240  A    between atoms: _619  and  _620
REMARK  241  A    between atoms: _619  and  _622
REMARK  242  A    between atoms: _622  and  _623
REMARK  243  A    between atoms: _623  and  _624
REMARK  244  A    between atoms: _624  and  _625
REMARK  245  A    between atoms: _634  and  _636
REMARK  246  A    between atoms: _636  and  _637
REMARK  247  A    between atoms: _636  and  _639
REMARK  248  A    between atoms: _639  and  _640
REMARK  249  A    between atoms: _640  and  _641
REMARK  250  A    between atoms: _641  and  _642
REMARK  251  A    between atoms: _651  and  _653
REMARK  252  A    between atoms: _653  and  _654
REMARK  253  A    between atoms: _653  and  _656
REMARK  254  A    between atoms: _656  and  _657
REMARK  255  A    between atoms: _657  and  _658
REMARK  256  A    between atoms: _658  and  _659
REMARK  257  A    between atoms: _659  and  _660
REMARK  258  A    between atoms: _664  and  _666
REMARK  259  A    between atoms: _666  and  _667
REMARK  260  A    between atoms: _666  and  _669
REMARK  261  A    between atoms: _669  and  _670
REMARK  262  A    between atoms: _680  and  _682
REMARK  263  A    between atoms: _682  and  _683
REMARK  264  A    between atoms: _682  and  _685
REMARK  265  A    between atoms: _685  and  _686
REMARK  266  A    between atoms: _686  and  _687
REMARK  267  A    between atoms: _690  and  _692
REMARK  268  A    between atoms: _692  and  _693
REMARK  269  A    between atoms: _692  and  _695
REMARK  270  A    between atoms: _695  and  _696
REMARK  271  A    between atoms: _696  and  _697
REMARK  272  A    between atoms: _702  and  _704
REMARK  273  A    between atoms: _704  and  _705
REMARK  274  A    between atoms: _708  and  _710
REMARK  275  A    between atoms: _710  and  _711
REMARK  276  A    between atoms: _713  and  _715
REMARK  277  A    between atoms: _715  and  _716
REMARK  278  A    between atoms: _719  and  _721
REMARK  279  A    between atoms: _721  and  _722
REMARK  280  A    between atoms: _725  and  _727
REMARK  281  A    between atoms: _727  and  _728
REMARK  282  A    between atoms: _727  and  _730
REMARK  283  A    between atoms: _730  and  _731
REMARK  284  A    between atoms: _731  and  _732
REMARK  285  A    between atoms: _735  and  _737
REMARK  286  A    between atoms: _737  and  _738
REMARK  287  A    between atoms: _737  and  _740
REMARK  288  A    between atoms: _740  and  _741
REMARK  289  A    between atoms: _746  and  _747
REMARK  290  A    between atoms: _749  and  _751
REMARK  291  A    between atoms: _751  and  _752
REMARK  292  A    between atoms: _751  and  _754
REMARK  293  A    between atoms: _754  and  _755
REMARK  294  A    between atoms: _760  and  _761
REMARK  295  A    between atoms: _763  and  _765
REMARK  296  A    between atoms: _765  and  _766
REMARK  297  A    between atoms: _765  and  _768
REMARK  298  A    between atoms: _768  and  _769
REMARK  299  A    between atoms: _769  and  _770
REMARK  300  A    between atoms: _770  and  _771
REMARK  301  A    between atoms: _780  and  _782
REMARK  302  A    between atoms: _782  and  _783
REMARK  303  A    between atoms: _786  and  _788
REMARK  304  A    between atoms: _788  and  _789
REMARK  305  A    between atoms: _788  and  _791
REMARK  306  A    between atoms: _791  and  _792
REMARK  307  A    between atoms: _797  and  _798
REMARK  308  A    between atoms: _800  and  _802
REMARK  309  A    between atoms: _802  and  _803
REMARK  310  A    between atoms: _802  and  _805
REMARK  311  A    between atoms: _805  and  _806
REMARK  312  A    between atoms: _809  and  _811
REMARK  313  A    between atoms: _811  and  _812
REMARK  314  A    between atoms: _811  and  _814
REMARK  315  A    between atoms: _814  and  _815
REMARK  316  A    between atoms: _815  and  _816
REMARK  317  A    between atoms: _819  and  _821
REMARK  318  A    between atoms: _821  and  _822
REMARK  319  A    between atoms: _821  and  _824
REMARK  320  A    between atoms: _826  and  _828
REMARK  321  A    between atoms: _828  and  _829
REMARK  322  A    between atoms: _828  and  _831
REMARK  323  A    between atoms: _834  and  _836
REMARK  324  A    between atoms: _836  and  _837
REMARK  325  A    between atoms: _836  and  _839
REMARK  326  A    between atoms: _839  and  _840
REMARK  327  A    between atoms: _840  and  _841
REMARK  328  A    between atoms: _844  and  _846
REMARK  329  A    between atoms: _846  and  _847
REMARK  330  A    between atoms: _846  and  _849
REMARK  331  A    between atoms: _849  and  _850
REMARK  332  A    between atoms: _860  and  _862
REMARK  333  A    between atoms: _862  and  _863
REMARK  334  A    between atoms: _862  and  _865
REMARK  335  A    between atoms: _865  and  _866
REMARK  336  A    between atoms: _869  and  _871
REMARK  337  A    between atoms: _871  and  _872
REMARK  338  A    between atoms: _871  and  _874
REMARK  339  A    between atoms: _874  and  _875
REMARK  340  A    between atoms: _875  and  _876
REMARK  341  A    between atoms: _876  and  _877
REMARK  342  A    between atoms: _886  and  _888
REMARK  343  A    between atoms: _888  and  _889
REMARK  344  A    between atoms: _888  and  _891
REMARK  345  A    between atoms: _891  and  _892
REMARK  346  A    between atoms: _897  and  _898
REMARK                            x       y       z     vdW  Elec       q    Type
REMARK                         _______ _______ _______ _____ _____    ______ ____
ROOT
ATOM      1  CG  TYR A   1      -3.050 -20.877  -2.707  0.00  0.00    -0.020 A 
ATOM      2  CD2 TYR A   1      -2.551 -19.612  -2.378  0.00  0.00    -0.001 A 
ATOM      3  CE2 TYR A   1      -1.773 -18.886  -3.276  0.00  0.00    +0.036 A 
ATOM      4  CZ  TYR A   1      -1.486 -19.424  -4.519  0.00  0.00    +0.134 A 
ATOM      5  CE1 TYR A   1      -1.967 -20.680  -4.869  0.00  0.00    +0.036 A 
ATOM      6  CD1 TYR A   1      -2.745 -21.397  -3.965  0.00  0.00    -0.001 A 
ENDROOT
BRANCH   4   7
ATOM      7  OH  TYR A   1      -0.731 -18.704  -5.411  0.00  0.00    -0.506 OA
ATOM      8  HH  TYR A   1      -0.619 -19.227  -6.244  0.00  0.00    +0.292 HD
ENDBRANCH   4   7
BRANCH   1   9
ATOM      9  CB  TYR A   1      -3.909 -21.658  -1.725  0.00  0.00    +0.051 C 
BRANCH   9  10
ATOM     10  CA  TYR A   1      -5.367 -21.174  -1.608  0.00  0.00    +0.137 C 
BRANCH  10  11
ATOM     11  N   TYR A   1      -6.145 -22.147  -0.837  0.00  0.00    -0.239 NA
ATOM     12  H   TYR A   1      -6.109 -23.153  -1.100  0.00  0.00    +0.142 HD
ENDBRANCH  10  11
BRANCH  10  13
ATOM     13  C   TYR A   1      -5.952 -20.919  -2.997  0.00  0.00    +0.224 C 
ATOM     14  O   TYR A   1      -6.400 -21.843  -3.669  0.00  0.00    -0.287 OA
ENDBRANCH  10  13
ENDBRANCH   9  10
ENDBRANCH   1   9
TORSDOF 5
REMARK  Name = ../refined-set-2016/3ery/3ery_pocket.pdb
REMARK  346 active torsions:
REMARK  status: ('A' for Active; 'I' for Inactive)
REMARK    1  A    between atoms: _1  and  _3
REMARK    2  A    between atoms: _3  and  _4
REMARK    3  A    between atoms: _3  and  _6
REMARK    4  A    between atoms: _6  and  _7
REMARK    5  A    between atoms: _7  and  _8
REMARK    6  A    between atoms: _10  and  _12
REMARK    7  A    between atoms: _12  and  _13
REMARK    8  A    between atoms: _12  and  _15
REMARK    9  A    between atoms: _15  and  _16
REMARK   10  A    between atoms: _16  and  _17
REMARK   11  A    between atoms: _17  and  _18
REMARK   12  A    between atoms: _27  and  _29
REMARK   13  A    between atoms: _29  and  _30
REMARK   14  A    between atoms: _29  and  _32
REMARK   15  A    between atoms: _32  and  _33
REMARK   16  A    between atoms: _38  and  _39
REMARK   17  A    between atoms: _41  and  _43
REMARK   18  A    between atoms: _43  and  _44
REMARK   19  A    between atoms: _43  and  _46
REMARK   20  A    between atoms: _46  and  _47
REMARK   21  A    between atoms: _52  and  _53
REMARK   22  A    between atoms: _55  and  _57
REMARK   23  A    between atoms: _57  and  _58
REMARK   24  A    between atoms: _57  and  _60
REMARK   25  A    between atoms: _60  and  _61
REMARK   26  A    between atoms: _61  and  _62
REMARK   27  A    between atoms: _65  and  _67
REMARK   28  A    between atoms: _67  and  _68
REMARK   29  A    between atoms: _67  and  _70
REMARK   30  A    between atoms: _70  and  _71
REMARK   31  A    between atoms: _76  and  _77
REMARK   32  A    between atoms: _79  and  _81
REMARK   33  A    between atoms: _81  and  _82
REMARK   34  A    between atoms: _81  and  _84
REMARK   35  A    between atoms: _84  and  _85
REMARK   36  A    between atoms: _87  and  _89
REMARK   37  A    between atoms: _89  and  _90
REMARK   38  A    between atoms: _89  and  _92
REMARK   39  A    between atoms: _95  and  _97
REMARK   40  A    between atoms: _97  and  _98
REMARK   41  A    between atoms: _100  and  _102
REMARK   42  A    between atoms: _102  and  _103
REMARK   43  A    between atoms: _102  and  _105
REMARK   44  A    between atoms: _105  and  _106
REMARK   45  A    between atoms: _112  and  _114
REMARK   46  A    between atoms: _114  and  _115
REMARK   47  A    between atoms: _114  and  _117
REMARK   48  A    between atoms: _120  and  _122
REMARK   49  A    between atoms: _122  and  _123
REMARK   50  A    between atoms: _122  and  _125
REMARK   51  A    between atoms: _125  and  _126
REMARK   52  A    between atoms: _132  and  _134
REMARK   53  A    between atoms: _134  and  _135
REMARK   54  A    between atoms: _134  and  _137
REMARK   55  A    between atoms: _137  and  _138
REMARK   56  A    between atoms: _143  and  _144
REMARK   57  A    between atoms: _146  and  _148
REMARK   58  A    between atoms: _148  and  _149
REMARK   59  A    between atoms: _148  and  _151
REMARK   60  A    between atoms: _151  and  _152
REMARK   61  A    between atoms: _152  and  _153
REMARK   62  A    between atoms: _156  and  _158
REMARK   63  A    between atoms: _158  and  _159
REMARK   64  A    between atoms: _158  and  _161
REMARK   65  A    between atoms: _161  and  _162
REMARK   66  A    between atoms: _162  and  _163
REMARK   67  A    between atoms: _166  and  _168
REMARK   68  A    between atoms: _168  and  _169
REMARK   69  A    between atoms: _168  and  _171
REMARK   70  A    between atoms: _171  and  _172
REMARK   71  A    between atoms: _177  and  _178
REMARK   72  A    between atoms: _180  and  _182
REMARK   73  A    between atoms: _182  and  _183
REMARK   74  A    between atoms: _182  and  _185
REMARK   75  A    between atoms: _185  and  _186
REMARK   76  A    between atoms: _196  and  _198
REMARK   77  A    between atoms: _198  and  _199
REMARK   78  A    between atoms: _198  and  _201
REMARK   79  A    between atoms: _201  and  _202
REMARK   80  A    between atoms: _202  and  _203
REMARK   81  A    between atoms: _206  and  _208
REMARK   82  A    between atoms: _208  and  _209
REMARK   83  A    between atoms: _208  and  _211
REMARK   84  A    between atoms: _211  and  _212
REMARK   85  A    between atoms: _212  and  _213
REMARK   86  A    between atoms: _213  and  _214
REMARK   87  A    between atoms: _223  and  _225
REMARK   88  A    between atoms: _225  and  _226
REMARK   89  A    between atoms: _225  and  _228
REMARK   90  A    between atoms: _228  and  _229
REMARK   91  A    between atoms: _232  and  _234
REMARK   92  A    between atoms: _234  and  _235
REMARK   93  A    between atoms: _234  and  _237
REMARK   94  A    between atoms: _237  and  _238
REMARK   95  A    between atoms: _241  and  _243
REMARK   96  A    between atoms: _243  and  _244
REMARK   97  A    between atoms: _243  and  _246
REMARK   98  A    between atoms: _246  and  _247
REMARK   99  A    between atoms: _247  and  _248
REMARK  100  A    between atoms: _253  and  _255
REMARK  101  A    between atoms: _255  and  _256
REMARK  102  A    between atoms: _255  and  _258
REMARK  103  A    between atoms: _261  and  _263
REMARK  104  A    between atoms: _263  and  _264
REMARK  105  A    between atoms: _267  and  _269
REMARK  106  A    between atoms: _269  and  _270
REMARK  107  A    between atoms: _269  and  _272
REMARK  108  A    between atoms: _272  and  _273
REMARK  109  A    between atoms: _273  and  _274
REMARK  110  A    between atoms: _274  and  _275
REMARK  111  A    between atoms: _275  and  _276
REMARK  112  A    between atoms: _280  and  _282
REMARK  113  A    between atoms: _282  and  _283
REMARK  114  A    between atoms: _285  and  _287
REMARK  115  A    between atoms: _287  and  _288
REMARK  116  A    between atoms: _287  and  _290
REMARK  117  A    between atoms: _290  and  _291
REMARK  118  A    between atoms: _291  and  _292
REMARK  119  A    between atoms: _297  and  _299
REMARK  120  A    between atoms: _299  and  _300
REMARK  121  A    between atoms: _299  and  _302
REMARK  122  A    between atoms: _302  and  _303
REMARK  123  A    between atoms: _303  and  _304
REMARK  124  A    between atoms: _309  and  _311
REMARK  125  A    between atoms: _311  and  _312
REMARK  126  A    between atoms: _311  and  _314
REMARK  127  A    between atoms: _314  and  _315
REMARK  128  A    between atoms: _325  and  _327
REMARK  129  A    between atoms: _327  and  _328
REMARK  130  A    between atoms: _327  and  _330
REMARK  131  A    between atoms: _330  and  _331
REMARK  132  A    between atoms: _337  and  _339
REMARK  133  A    between atoms: _339  and  _340
REMARK  134  A    between atoms: _339  and  _342
REMARK  135  A    between atoms: _345  and  _347
REMARK  136  A    between atoms: _347  and  _348
REMARK  137  A    between atoms: _347  and  _350
REMARK  138  A    between atoms: _350  and  _351
REMARK  139  A    between atoms: _356  and  _358
REMARK  140  A    between atoms: _358  and  _359
REMARK  141  A    between atoms: _358  and  _361
REMARK  142  A    between atoms: _361  and  _362
REMARK  143  A    between atoms: _365  and  _367
REMARK  144  A    between atoms: _367  and  _368
REMARK  145  A    between atoms: _367  and  _370
REMARK  146  A    between atoms: _370  and  _371
REMARK  147  A    between atoms: _371  and  _372
REMARK  148  A    between atoms: _372  and  _373
REMARK  149  A    between atoms: _382  and  _384
REMARK  150  A    between atoms: _384  and  _385
REMARK  151  A    between atoms: _384  and  _387
REMARK  152  A    between atoms: _387  and  _388
REMARK  153  A    between atoms: _391  and  _393
REMARK  154  A    between atoms: _393  and  _394
REMARK  155  A    between atoms: _393  and  _396
REMARK  156  A    between atoms: _396  and  _397
REMARK  157  A    between atoms: _400  and  _402
REMARK  158  A    between atoms: _402  and  _403
REMARK  159  A    between atoms: _402  and  _405
REMARK  160  A    between atoms: _405  and  _406
REMARK  161  A    between atoms: _409  and  _411
REMARK  162  A    between atoms: _411  and  _412
REMARK  163  A    between atoms: _411  and  _414
REMARK  164  A    between atoms: _414  and  _415
REMARK  165  A    between atoms: _420  and  _421
REMARK  166  A    between atoms: _423  and  _425
REMARK  167  A    between atoms: _425  and  _426
REMARK  168  A    between atoms: _425  and  _428
REMARK  169  A    between atoms: _428  and  _429
REMARK  170  A    between atoms: _432  and  _434
REMARK  171  A    between atoms: _434  and  _435
REMARK  172  A    between atoms: _434  and  _437
REMARK  173  A    between atoms: _437  and  _438
REMARK  174  A    between atoms: _438  and  _439
REMARK  175  A    between atoms: _444  and  _446
REMARK  176  A    between atoms: _446  and  _447
REMARK  177  A    between atoms: _446  and  _449
REMARK  178  A    between atoms: _449  and  _450
REMARK  179  A    between atoms: _450  and  _451
REMARK  180  A    between atoms: _451  and  _452
REMARK  181  A    between atoms: _461  and  _463
REMARK  182  A    between atoms: _463  and  _464
REMARK  183  A    between atoms: _463  and  _466
REMARK  184  A    between atoms: _466  and  _467
REMARK  185  A    between atoms: _472  and  _473
REMARK  186  A    between atoms: _475  and  _477
REMARK  187  A    between atoms: _477  and  _478
REMARK  188  A    between atoms: _480  and  _482
REMARK  189  A    between atoms: _482  and  _483
REMARK  190  A    between atoms: _482  and  _485
REMARK  191  A    between atoms: _485  and  _486
REMARK  192  A    between atoms: _491  and  _492
REMARK  193  A    between atoms: _494  and  _496
REMARK  194  A    between atoms: _496  and  _497
REMARK  195  A    between atoms: _496  and  _499
REMARK  196  A    between atoms: _499  and  _500
REMARK  197  A    between atoms: _500  and  _501
REMARK  198  A    between atoms: _504  and  _506
REMARK  199  A    between atoms: _506  and  _507
REMARK  200  A    between atoms: _506  and  _509
REMARK  201  A    between atoms: _509  and  _510
REMARK  202  A    between atoms: _516  and  _518
REMARK  203  A    between atoms: _518  and  _519
REMARK  204  A    between atoms: _522  and  _524
REMARK  205  A    between atoms: _524  and  _525
REMARK  206  A    between atoms: _524  and  _527
REMARK  207  A    between atoms: _527  and  _528
REMARK  208  A    between atoms: _533  and  _534
REMARK  209  A    between atoms: _536  and  _538
REMARK  210  A    between atoms: _538  and  _539
REMARK  211  A    between atoms: _538  and  _541
REMARK  212  A    between atoms: _541  and  _542
REMARK  213  A    between atoms: _547  and  _548
REMARK  214  A    between atoms: _550  and  _552
REMARK  215  A    between atoms: _552  and  _553
REMARK  216  A    between atoms: _552  and  _555
REMARK  217  A    between atoms: _555  and  _556
REMARK  218  A    between atoms: _559  and  _561
REMARK  219  A    between atoms: _561  and  _562
REMARK  220  A    between atoms: _561  and  _564
REMARK  221  A    between atoms: _564  and  _565
REMARK  222  A    between atoms: _575  and  _577
REMARK  223  A    between atoms: _577  and  _578
REMARK  224  A    between atoms: _581  and  _583
REMARK  225  A    between atoms: _583  and  _584
REMARK  226  A    between atoms: _587  and  _589
REMARK  227  A    between atoms: _589  and  _590
REMARK  228  A    between atoms: _589  and  _592
REMARK  229  A    between atoms: _592  and  _593
REMARK  230  A    between atoms: _593  and  _594
REMARK  231  A    between atoms: _599  and  _601
REMARK  232  A    between atoms: _601  and  _602
REMARK  233  A    between atoms: _601  and  _604
REMARK  234  A    between atoms: _604  and  _605
REMARK  235  A    between atoms: _608  and  _610
REMARK  236  A    between atoms: _610  and  _611
REMARK  237  A    between atoms: _610  and  _613
REMARK  238  A    between atoms: _613  and  _614
REMARK  239  A    between atoms: _617  and  _619
REMARK  240  A    between atoms: _619  and  _620
REMARK  241  A    between atoms: _619  and  _622
REMARK  242  A    between atoms: _622  and  _623
REMARK  243  A    between atoms: _623  and  _624
REMARK  244  A    between atoms: _624  and  _625
REMARK  245  A    between atoms: _634  and  _636
REMARK  246  A    between atoms: _636  and  _637
REMARK  247  A    between atoms: _636  and  _639
REMARK  248  A    between atoms: _639  and  _640
REMARK  249  A    between atoms: _640  and  _641
REMARK  250  A    between atoms: _641  and  _642
REMARK  251  A    between atoms: _651  and  _653
REMARK  252  A    between atoms: _653  and  _654
REMARK  253  A    between atoms: _653  and  _656
REMARK  254  A    between atoms: _656  and  _657
REMARK  255  A    between atoms: _657  and  _658
REMARK  256  A    between atoms: _658  and  _659
REMARK  257  A    between atoms: _659  and  _660
REMARK  258  A    between atoms: _664  and  _666
REMARK  259  A    between atoms: _666  and  _667
REMARK  260  A    between atoms: _666  and  _669
REMARK  261  A    between atoms: _669  and  _670
REMARK  262  A    between atoms: _680  and  _682
REMARK  263  A    between atoms: _682  and  _683
REMARK  264  A    between atoms: _682  and  _685
REMARK  265  A    between atoms: _685  and  _686
REMARK  266  A    between atoms: _686  and  _687
REMARK  267  A    between atoms: _690  and  _692
REMARK  268  A    between atoms: _692  and  _693
REMARK  269  A    between atoms: _692  and  _695
REMARK  270  A    between atoms: _695  and  _696
REMARK  271  A    between atoms: _696  and  _697
REMARK  272  A    between atoms: _702  and  _704
REMARK  273  A    between atoms: _704  and  _705
REMARK  274  A    between atoms: _708  and  _710
REMARK  275  A    between atoms: _710  and  _711
REMARK  276  A    between atoms: _713  and  _715
REMARK  277  A    between atoms: _715  and  _716
REMARK  278  A    between atoms: _719  and  _721
REMARK  279  A    between atoms: _721  and  _722
REMARK  280  A    between atoms: _725  and  _727
REMARK  281  A    between atoms: _727  and  _728
REMARK  282  A    between atoms: _727  and  _730
REMARK  283  A    between atoms: _730  and  _731
REMARK  284  A    between atoms: _731  and  _732
REMARK  285  A    between atoms: _735  and  _737
REMARK  286  A    between atoms: _737  and  _738
REMARK  287  A    between atoms: _737  and  _740
REMARK  288  A    between atoms: _740  and  _741
REMARK  289  A    between atoms: _746  and  _747
REMARK  290  A    between atoms: _749  and  _751
REMARK  291  A    between atoms: _751  and  _752
REMARK  292  A    between atoms: _751  and  _754
REMARK  293  A    between atoms: _754  and  _755
REMARK  294  A    between atoms: _760  and  _761
REMARK  295  A    between atoms: _763  and  _765
REMARK  296  A    between atoms: _765  and  _766
REMARK  297  A    between atoms: _765  and  _768
REMARK  298  A    between atoms: _768  and  _769
REMARK  299  A    between atoms: _769  and  _770
REMARK  300  A    between atoms: _770  and  _771
REMARK  301  A    between atoms: _780  and  _782
REMARK  302  A    between atoms: _782  and  _783
REMARK  303  A    between atoms: _786  and  _788
REMARK  304  A    between atoms: _788  and  _789
REMARK  305  A    between atoms: _788  and  _791
REMARK  306  A    between atoms: _791  and  _792
REMARK  307  A    between atoms: _797  and  _798
REMARK  308  A    between atoms: _800  and  _802
REMARK  309  A    between atoms: _802  and  _803
REMARK  310  A    between atoms: _802  and  _805
REMARK  311  A    between atoms: _805  and  _806
REMARK  312  A    between atoms: _809  and  _811
REMARK  313  A    between atoms: _811  and  _812
REMARK  314  A    between atoms: _811  and  _814
REMARK  315  A    between atoms: _814  and  _815
REMARK  316  A    between atoms: _815  and  _816
REMARK  317  A    between atoms: _819  and  _821
REMARK  318  A    between atoms: _821  and  _822
REMARK  319  A    between atoms: _821  and  _824
REMARK  320  A    between atoms: _826  and  _828
REMARK  321  A    between atoms: _828  and  _829
REMARK  322  A    between atoms: _828  and  _831
REMARK  323  A    between atoms: _834  and  _836
REMARK  324  A    between atoms: _836  and  _837
REMARK  325  A    between atoms: _836  and  _839
REMARK  326  A    between atoms: _839  and  _840
REMARK  327  A    between atoms: _840  and  _841
REMARK  328  A    between atoms: _844  and  _846
REMARK  329  A    between atoms: _846  and  _847
REMARK  330  A    between atoms: _846  and  _849
REMARK  331  A    between atoms: _849  and  _850
REMARK  332  A    between atoms: _860  and  _862
REMARK  333  A    between atoms: _862  and  _863
REMARK  334  A    between atoms: _862  and  _865
REMARK  335  A    between atoms: _865  and  _866
REMARK  336  A    between atoms: _869  and  _871
REMARK  337  A    between atoms: _871  and  _872
REMARK  338  A    between atoms: _871  and  _874
REMARK  339  A    between atoms: _874  and  _875
REMARK  340  A    between atoms: _875  and  _876
REMARK  341  A    between atoms: _876  and  _877
REMARK  342  A    between atoms: _886  and  _888
REMARK  343  A    between atoms: _888  and  _889
REMARK  344  A    between atoms: _888  and  _891
REMARK  345  A    between atoms: _891  and  _892
REMARK  346  A    between atoms: _897  and  _898
REMARK                            x       y       z     vdW  Elec       q    Type
REMARK                         _______ _______ _______ _____ _____    ______ ____
ROOT
ATOM      1  CA  VAL A   2      -6.205 -15.364 -10.190  0.00  0.00    +0.148 C 
ENDROOT
BRANCH   1   3
ATOM      2  C   SER A   1      -5.359 -17.103  -8.717  0.00  0.00    +0.241 C 
ATOM      3  N   VAL A   2      -5.535 -15.812  -8.977  0.00  0.00    -0.297 N 
ATOM      4  H   VAL A   2      -5.186 -15.105  -8.299  0.00  0.00    +0.150 HD
ATOM      5  O   SER A   1      -5.772 -18.002  -9.446  0.00  0.00    -0.274 OA
BRANCH   2   6
ATOM      6  CA  SER A   1      -4.628 -17.434  -7.438  0.00  0.00    +0.174 C 
BRANCH   6   7
ATOM      7  N   SER A   1      -5.412 -18.394  -6.692  0.00  0.00    -0.236 NA
ATOM      8  H   SER A   1      -5.833 -19.206  -7.187  0.00  0.00    +0.142 HD
ENDBRANCH   6   7
BRANCH   6   9
ATOM      9  CB  SER A   1      -3.254 -17.995  -7.773  0.00  0.00    +0.163 C 
BRANCH   9  10
ATOM     10  OG  SER A   1      -2.512 -17.054  -8.534  0.00  0.00    -0.380 OA
ATOM     11  H   SER A   1      -1.621 -17.431  -8.745  0.00  0.00    +0.211 HD
ENDBRANCH   9  10
ENDBRANCH   6   9
ENDBRANCH   2   6
ENDBRANCH   1   3
BRANCH   1  12
ATOM     12  C   VAL A   2      -5.466 -14.171 -10.782  0.00  0.00    +0.241 C 
ATOM     13  O   VAL A   2      -5.053 -13.254 -10.069  0.00  0.00    -0.273 OA
ATOM     14  N   GLY A   3      -5.269 -14.205 -12.094  0.00  0.00    -0.296 N 
ATOM     15  H   GLY A   3      -5.614 -15.016 -12.647  0.00  0.00    +0.150 HD
BRANCH  14  16
ATOM     16  CA  GLY A   3      -4.577 -13.121 -12.762  0.00  0.00    +0.163 C 
BRANCH  16  17
ATOM     17  C   GLY A   3      -5.524 -12.377 -13.673  0.00  0.00    +0.229 C 
ATOM     18  O   GLY A   3      -6.507 -12.939 -14.164  0.00  0.00    -0.286 OA
ENDBRANCH  16  17
ENDBRANCH  14  16
ENDBRANCH   1  12
BRANCH   1  19
ATOM     19  CB  VAL A   2      -7.704 -15.002  -9.935  0.00  0.00    +0.027 C 
ATOM     20  CG2 VAL A   2      -7.828 -13.877  -8.916  0.00  0.00    +0.002 C 
ATOM     21  CG1 VAL A   2      -8.376 -14.609 -11.258  0.00  0.00    +0.002 C 
ENDBRANCH   1  19
TORSDOF 9
REMARK  Name = ../refined-set-2016/3ery/3ery_pocket.pdb
REMARK  346 active torsions:
REMARK  status: ('A' for Active; 'I' for Inactive)
REMARK    1  A    between atoms: _1  and  _3
REMARK    2  A    between atoms: _3  and  _4
REMARK    3  A    between atoms: _3  and  _6
REMARK    4  A    between atoms: _6  and  _7
REMARK    5  A    between atoms: _7  and  _8
REMARK    6  A    between atoms: _10  and  _12
REMARK    7  A    between atoms: _12  and  _13
REMARK    8  A    between atoms: _12  and  _15
REMARK    9  A    between atoms: _15  and  _16
REMARK   10  A    between atoms: _16  and  _17
REMARK   11  A    between atoms: _17  and  _18
REMARK   12  A    between atoms: _27  and  _29
REMARK   13  A    between atoms: _29  and  _30
REMARK   14  A    between atoms: _29  and  _32
REMARK   15  A    between atoms: _32  and  _33
REMARK   16  A    between atoms: _38  and  _39
REMARK   17  A    between atoms: _41  and  _43
REMARK   18  A    between atoms: _43  and  _44
REMARK   19  A    between atoms: _43  and  _46
REMARK   20  A    between atoms: _46  and  _47
REMARK   21  A    between atoms: _52  and  _53
REMARK   22  A    between atoms: _55  and  _57
REMARK   23  A    between atoms: _57  and  _58
REMARK   24  A    between atoms: _57  and  _60
REMARK   25  A    between atoms: _60  and  _61
REMARK   26  A    between atoms: _61  and  _62
REMARK   27  A    between atoms: _65  and  _67
REMARK   28  A    between atoms: _67  and  _68
REMARK   29  A    between atoms: _67  and  _70
REMARK   30  A    between atoms: _70  and  _71
REMARK   31  A    between atoms: _76  and  _77
REMARK   32  A    between atoms: _79  and  _81
REMARK   33  A    between atoms: _81  and  _82
REMARK   34  A    between atoms: _81  and  _84
REMARK   35  A    between atoms: _84  and  _85
REMARK   36  A    between atoms: _87  and  _89
REMARK   37  A    between atoms: _89  and  _90
REMARK   38  A    between atoms: _89  and  _92
REMARK   39  A    between atoms: _95  and  _97
REMARK   40  A    between atoms: _97  and  _98
REMARK   41  A    between atoms: _100  and  _102
REMARK   42  A    between atoms: _102  and  _103
REMARK   43  A    between atoms: _102  and  _105
REMARK   44  A    between atoms: _105  and  _106
REMARK   45  A    between atoms: _112  and  _114
REMARK   46  A    between atoms: _114  and  _115
REMARK   47  A    between atoms: _114  and  _117
REMARK   48  A    between atoms: _120  and  _122
REMARK   49  A    between atoms: _122  and  _123
REMARK   50  A    between atoms: _122  and  _125
REMARK   51  A    between atoms: _125  and  _126
REMARK   52  A    between atoms: _132  and  _134
REMARK   53  A    between atoms: _134  and  _135
REMARK   54  A    between atoms: _134  and  _137
REMARK   55  A    between atoms: _137  and  _138
REMARK   56  A    between atoms: _143  and  _144
REMARK   57  A    between atoms: _146  and  _148
REMARK   58  A    between atoms: _148  and  _149
REMARK   59  A    between atoms: _148  and  _151
REMARK   60  A    between atoms: _151  and  _152
REMARK   61  A    between atoms: _152  and  _153
REMARK   62  A    between atoms: _156  and  _158
REMARK   63  A    between atoms: _158  and  _159
REMARK   64  A    between atoms: _158  and  _161
REMARK   65  A    between atoms: _161  and  _162
REMARK   66  A    between atoms: _162  and  _163
REMARK   67  A    between atoms: _166  and  _168
REMARK   68  A    between atoms: _168  and  _169
REMARK   69  A    between atoms: _168  and  _171
REMARK   70  A    between atoms: _171  and  _172
REMARK   71  A    between atoms: _177  and  _178
REMARK   72  A    between atoms: _180  and  _182
REMARK   73  A    between atoms: _182  and  _183
REMARK   74  A    between atoms: _182  and  _185
REMARK   75  A    between atoms: _185  and  _186
REMARK   76  A    between atoms: _196  and  _198
REMARK   77  A    between atoms: _198  and  _199
REMARK   78  A    between atoms: _198  and  _201
REMARK   79  A    between atoms: _201  and  _202
REMARK   80  A    between atoms: _202  and  _203
REMARK   81  A    between atoms: _206  and  _208
REMARK   82  A    between atoms: _208  and  _209
REMARK   83  A    between atoms: _208  and  _211
REMARK   84  A    between atoms: _211  and  _212
REMARK   85  A    between atoms: _212  and  _213
REMARK   86  A    between atoms: _213  and  _214
REMARK   87  A    between atoms: _223  and  _225
REMARK   88  A    between atoms: _225  and  _226
REMARK   89  A    between atoms: _225  and  _228
REMARK   90  A    between atoms: _228  and  _229
REMARK   91  A    between atoms: _232  and  _234
REMARK   92  A    between atoms: _234  and  _235
REMARK   93  A    between atoms: _234  and  _237
REMARK   94  A    between atoms: _237  and  _238
REMARK   95  A    between atoms: _241  and  _243
REMARK   96  A    between atoms: _243  and  _244
REMARK   97  A    between atoms: _243  and  _246
REMARK   98  A    between atoms: _246  and  _247
REMARK   99  A    between atoms: _247  and  _248
REMARK  100  A    between atoms: _253  and  _255
REMARK  101  A    between atoms: _255  and  _256
REMARK  102  A    between atoms: _255  and  _258
REMARK  103  A    between atoms: _261  and  _263
REMARK  104  A    between atoms: _263  and  _264
REMARK  105  A    between atoms: _267  and  _269
REMARK  106  A    between atoms: _269  and  _270
REMARK  107  A    between atoms: _269  and  _272
REMARK  108  A    between atoms: _272  and  _273
REMARK  109  A    between atoms: _273  and  _274
REMARK  110  A    between atoms: _274  and  _275
REMARK  111  A    between atoms: _275  and  _276
REMARK  112  A    between atoms: _280  and  _282
REMARK  113  A    between atoms: _282  and  _283
REMARK  114  A    between atoms: _285  and  _287
REMARK  115  A    between atoms: _287  and  _288
REMARK  116  A    between atoms: _287  and  _290
REMARK  117  A    between atoms: _290  and  _291
REMARK  118  A    between atoms: _291  and  _292
REMARK  119  A    between atoms: _297  and  _299
REMARK  120  A    between atoms: _299  and  _300
REMARK  121  A    between atoms: _299  and  _302
REMARK  122  A    between atoms: _302  and  _303
REMARK  123  A    between atoms: _303  and  _304
REMARK  124  A    between atoms: _309  and  _311
REMARK  125  A    between atoms: _311  and  _312
REMARK  126  A    between atoms: _311  and  _314
REMARK  127  A    between atoms: _314  and  _315
REMARK  128  A    between atoms: _325  and  _327
REMARK  129  A    between atoms: _327  and  _328
REMARK  130  A    between atoms: _327  and  _330
REMARK  131  A    between atoms: _330  and  _331
REMARK  132  A    between atoms: _337  and  _339
REMARK  133  A    between atoms: _339  and  _340
REMARK  134  A    between atoms: _339  and  _342
REMARK  135  A    between atoms: _345  and  _347
REMARK  136  A    between atoms: _347  and  _348
REMARK  137  A    between atoms: _347  and  _350
REMARK  138  A    between atoms: _350  and  _351
REMARK  139  A    between atoms: _356  and  _358
REMARK  140  A    between atoms: _358  and  _359
REMARK  141  A    between atoms: _358  and  _361
REMARK  142  A    between atoms: _361  and  _362
REMARK  143  A    between atoms: _365  and  _367
REMARK  144  A    between atoms: _367  and  _368
REMARK  145  A    between atoms: _367  and  _370
REMARK  146  A    between atoms: _370  and  _371
REMARK  147  A    between atoms: _371  and  _372
REMARK  148  A    between atoms: _372  and  _373
REMARK  149  A    between atoms: _382  and  _384
REMARK  150  A    between atoms: _384  and  _385
REMARK  151  A    between atoms: _384  and  _387
REMARK  152  A    between atoms: _387  and  _388
REMARK  153  A    between atoms: _391  and  _393
REMARK  154  A    between atoms: _393  and  _394
REMARK  155  A    between atoms: _393  and  _396
REMARK  156  A    between atoms: _396  and  _397
REMARK  157  A    between atoms: _400  and  _402
REMARK  158  A    between atoms: _402  and  _403
REMARK  159  A    between atoms: _402  and  _405
REMARK  160  A    between atoms: _405  and  _406
REMARK  161  A    between atoms: _409  and  _411
REMARK  162  A    between atoms: _411  and  _412
REMARK  163  A    between atoms: _411  and  _414
REMARK  164  A    between atoms: _414  and  _415
REMARK  165  A    between atoms: _420  and  _421
REMARK  166  A    between atoms: _423  and  _425
REMARK  167  A    between atoms: _425  and  _426
REMARK  168  A    between atoms: _425  and  _428
REMARK  169  A    between atoms: _428  and  _429
REMARK  170  A    between atoms: _432  and  _434
REMARK  171  A    between atoms: _434  and  _435
REMARK  172  A    between atoms: _434  and  _437
REMARK  173  A    between atoms: _437  and  _438
REMARK  174  A    between atoms: _438  and  _439
REMARK  175  A    between atoms: _444  and  _446
REMARK  176  A    between atoms: _446  and  _447
REMARK  177  A    between atoms: _446  and  _449
REMARK  178  A    between atoms: _449  and  _450
REMARK  179  A    between atoms: _450  and  _451
REMARK  180  A    between atoms: _451  and  _452
REMARK  181  A    between atoms: _461  and  _463
REMARK  182  A    between atoms: _463  and  _464
REMARK  183  A    between atoms: _463  and  _466
REMARK  184  A    between atoms: _466  and  _467
REMARK  185  A    between atoms: _472  and  _473
REMARK  186  A    between atoms: _475  and  _477
REMARK  187  A    between atoms: _477  and  _478
REMARK  188  A    between atoms: _480  and  _482
REMARK  189  A    between atoms: _482  and  _483
REMARK  190  A    between atoms: _482  and  _485
REMARK  191  A    between atoms: _485  and  _486
REMARK  192  A    between atoms: _491  and  _492
REMARK  193  A    between atoms: _494  and  _496
REMARK  194  A    between atoms: _496  and  _497
REMARK  195  A    between atoms: _496  and  _499
REMARK  196  A    between atoms: _499  and  _500
REMARK  197  A    between atoms: _500  and  _501
REMARK  198  A    between atoms: _504  and  _506
REMARK  199  A    between atoms: _506  and  _507
REMARK  200  A    between atoms: _506  and  _509
REMARK  201  A    between atoms: _509  and  _510
REMARK  202  A    between atoms: _516  and  _518
REMARK  203  A    between atoms: _518  and  _519
REMARK  204  A    between atoms: _522  and  _524
REMARK  205  A    between atoms: _524  and  _525
REMARK  206  A    between atoms: _524  and  _527
REMARK  207  A    between atoms: _527  and  _528
REMARK  208  A    between atoms: _533  and  _534
REMARK  209  A    between atoms: _536  and  _538
REMARK  210  A    between atoms: _538  and  _539
REMARK  211  A    between atoms: _538  and  _541
REMARK  212  A    between atoms: _541  and  _542
REMARK  213  A    between atoms: _547  and  _548
REMARK  214  A    between atoms: _550  and  _552
REMARK  215  A    between atoms: _552  and  _553
REMARK  216  A    between atoms: _552  and  _555
REMARK  217  A    between atoms: _555  and  _556
REMARK  218  A    between atoms: _559  and  _561
REMARK  219  A    between atoms: _561  and  _562
REMARK  220  A    between atoms: _561  and  _564
REMARK  221  A    between atoms: _564  and  _565
REMARK  222  A    between atoms: _575  and  _577
REMARK  223  A    between atoms: _577  and  _578
REMARK  224  A    between atoms: _581  and  _583
REMARK  225  A    between atoms: _583  and  _584
REMARK  226  A    between atoms: _587  and  _589
REMARK  227  A    between atoms: _589  and  _590
REMARK  228  A    between atoms: _589  and  _592
REMARK  229  A    between atoms: _592  and  _593
REMARK  230  A    between atoms: _593  and  _594
REMARK  231  A    between atoms: _599  and  _601
REMARK  232  A    between atoms: _601  and  _602
REMARK  233  A    between atoms: _601  and  _604
REMARK  234  A    between atoms: _604  and  _605
REMARK  235  A    between atoms: _608  and  _610
REMARK  236  A    between atoms: _610  and  _611
REMARK  237  A    between atoms: _610  and  _613
REMARK  238  A    between atoms: _613  and  _614
REMARK  239  A    between atoms: _617  and  _619
REMARK  240  A    between atoms: _619  and  _620
REMARK  241  A    between atoms: _619  and  _622
REMARK  242  A    between atoms: _622  and  _623
REMARK  243  A    between atoms: _623  and  _624
REMARK  244  A    between atoms: _624  and  _625
REMARK  245  A    between atoms: _634  and  _636
REMARK  246  A    between atoms: _636  and  _637
REMARK  247  A    between atoms: _636  and  _639
REMARK  248  A    between atoms: _639  and  _640
REMARK  249  A    between atoms: _640  and  _641
REMARK  250  A    between atoms: _641  and  _642
REMARK  251  A    between atoms: _651  and  _653
REMARK  252  A    between atoms: _653  and  _654
REMARK  253  A    between atoms: _653  and  _656
REMARK  254  A    between atoms: _656  and  _657
REMARK  255  A    between atoms: _657  and  _658
REMARK  256  A    between atoms: _658  and  _659
REMARK  257  A    between atoms: _659  and  _660
REMARK  258  A    between atoms: _664  and  _666
REMARK  259  A    between atoms: _666  and  _667
REMARK  260  A    between atoms: _666  and  _669
REMARK  261  A    between atoms: _669  and  _670
REMARK  262  A    between atoms: _680  and  _682
REMARK  263  A    between atoms: _682  and  _683
REMARK  264  A    between atoms: _682  and  _685
REMARK  265  A    between atoms: _685  and  _686
REMARK  266  A    between atoms: _686  and  _687
REMARK  267  A    between atoms: _690  and  _692
REMARK  268  A    between atoms: _692  and  _693
REMARK  269  A    between atoms: _692  and  _695
REMARK  270  A    between atoms: _695  and  _696
REMARK  271  A    between atoms: _696  and  _697
REMARK  272  A    between atoms: _702  and  _704
REMARK  273  A    between atoms: _704  and  _705
REMARK  274  A    between atoms: _708  and  _710
REMARK  275  A    between atoms: _710  and  _711
REMARK  276  A    between atoms: _713  and  _715
REMARK  277  A    between atoms: _715  and  _716
REMARK  278  A    between atoms: _719  and  _721
REMARK  279  A    between atoms: _721  and  _722
REMARK  280  A    between atoms: _725  and  _727
REMARK  281  A    between atoms: _727  and  _728
REMARK  282  A    between atoms: _727  and  _730
REMARK  283  A    between atoms: _730  and  _731
REMARK  284  A    between atoms: _731  and  _732
REMARK  285  A    between atoms: _735  and  _737
REMARK  286  A    between atoms: _737  and  _738
REMARK  287  A    between atoms: _737  and  _740
REMARK  288  A    between atoms: _740  and  _741
REMARK  289  A    between atoms: _746  and  _747
REMARK  290  A    between atoms: _749  and  _751
REMARK  291  A    between atoms: _751  and  _752
REMARK  292  A    between atoms: _751  and  _754
REMARK  293  A    between atoms: _754  and  _755
REMARK  294  A    between atoms: _760  and  _761
REMARK  295  A    between atoms: _763  and  _765
REMARK  296  A    between atoms: _765  and  _766
REMARK  297  A    between atoms: _765  and  _768
REMARK  298  A    between atoms: _768  and  _769
REMARK  299  A    between atoms: _769  and  _770
REMARK  300  A    between atoms: _770  and  _771
REMARK  301  A    between atoms: _780  and  _782
REMARK  302  A    between atoms: _782  and  _783
REMARK  303  A    between atoms: _786  and  _788
REMARK  304  A    between atoms: _788  and  _789
REMARK  305  A    between atoms: _788  and  _791
REMARK  306  A    between atoms: _791  and  _792
REMARK  307  A    between atoms: _797  and  _798
REMARK  308  A    between atoms: _800  and  _802
REMARK  309  A    between atoms: _802  and  _803
REMARK  310  A    between atoms: _802  and  _805
REMARK  311  A    between atoms: _805  and  _806
REMARK  312  A    between atoms: _809  and  _811
REMARK  313  A    between atoms: _811  and  _812
REMARK  314  A    between atoms: _811  and  _814
REMARK  315  A    between atoms: _814  and  _815
REMARK  316  A    between atoms: _815  and  _816
REMARK  317  A    between atoms: _819  and  _821
REMARK  318  A    between atoms: _821  and  _822
REMARK  319  A    between atoms: _821  and  _824
REMARK  320  A    between atoms: _826  and  _828
REMARK  321  A    between atoms: _828  and  _829
REMARK  322  A    between atoms: _828  and  _831
REMARK  323  A    between atoms: _834  and  _836
REMARK  324  A    between atoms: _836  and  _837
REMARK  325  A    between atoms: _836  and  _839
REMARK  326  A    between atoms: _839  and  _840
REMARK  327  A    between atoms: _840  and  _841
REMARK  328  A    between atoms: _844  and  _846
REMARK  329  A    between atoms: _846  and  _847
REMARK  330  A    between atoms: _846  and  _849
REMARK  331  A    between atoms: _849  and  _850
REMARK  332  A    between atoms: _860  and  _862
REMARK  333  A    between atoms: _862  and  _863
REMARK  334  A    between atoms: _862  and  _865
REMARK  335  A    between atoms: _865  and  _866
REMARK  336  A    between atoms: _869  and  _871
REMARK  337  A    between atoms: _871  and  _872
REMARK  338  A    between atoms: _871  and  _874
REMARK  339  A    between atoms: _874  and  _875
REMARK  340  A    between atoms: _875  and  _876
REMARK  341  A    between atoms: _876  and  _877
REMARK  342  A    between atoms: _886  and  _888
REMARK  343  A    between atoms: _888  and  _889
REMARK  344  A    between atoms: _888  and  _891
REMARK  345  A    between atoms: _891  and  _892
REMARK  346  A    between atoms: _897  and  _898
REMARK                            x       y       z     vdW  Elec       q    Type
REMARK                         _______ _______ _______ _____ _____    ______ ____
ROOT
ATOM      1  CA  PHE A   1      -7.134 -14.870 -17.920  0.00  0.00    +0.149 C 
ENDROOT
BRANCH   1   2
ATOM      2  C   PHE A   1      -6.532 -16.169 -17.393  0.00  0.00    +0.239 C 
ATOM      3  N   VAL A   2      -6.249 -16.223 -16.092  0.00  0.00    -0.298 N 
ATOM      4  H   VAL A   2      -6.441 -15.395 -15.493  0.00  0.00    +0.150 HD
ATOM      5  O   PHE A   1      -6.350 -17.114 -18.151  0.00  0.00    -0.274 OA
BRANCH   3   6
ATOM      6  CA  VAL A   2      -5.675 -17.423 -15.494  0.00  0.00    +0.137 C 
BRANCH   6   7
ATOM      7  CB  VAL A   2      -4.133 -17.364 -15.507  0.00  0.00    +0.026 C 
ATOM      8  CG2 VAL A   2      -3.643 -16.247 -14.604  0.00  0.00    +0.002 C 
ATOM      9  CG1 VAL A   2      -3.562 -18.702 -15.091  0.00  0.00    +0.002 C 
ENDBRANCH   6   7
BRANCH   6  10
ATOM     10  C   VAL A   2      -6.166 -17.592 -14.064  0.00  0.00    +0.227 C 
ATOM     11  O   VAL A   2      -6.471 -16.610 -13.384  0.00  0.00    -0.286 OA
ENDBRANCH   6  10
ENDBRANCH   3   6
ENDBRANCH   1   2
BRANCH   1  12
ATOM     12  N   PHE A   1      -7.665 -14.029 -16.853  0.00  0.00    -0.238 NA
ATOM     13  H   PHE A   1      -7.090 -13.832 -16.009  0.00  0.00    +0.142 HD
ENDBRANCH   1  12
BRANCH   1  14
ATOM     14  CB  PHE A   1      -6.108 -14.095 -18.758  0.00  0.00    +0.053 C 
BRANCH  14  15
ATOM     15  CG  PHE A   1      -4.811 -13.803 -18.048  0.00  0.00    -0.020 A 
ATOM     16  CD2 PHE A   1      -4.772 -12.940 -16.957  0.00  0.00    -0.004 A 
ATOM     17  CE2 PHE A   1      -3.570 -12.649 -16.315  0.00  0.00    -0.000 A 
ATOM     18  CZ  PHE A   1      -2.384 -13.228 -16.760  0.00  0.00    -0.000 A 
ATOM     19  CE1 PHE A   1      -2.407 -14.094 -17.851  0.00  0.00    -0.000 A 
ATOM     20  CD1 PHE A   1      -3.619 -14.379 -18.489  0.00  0.00    -0.004 A 
ENDBRANCH  14  15
ENDBRANCH   1  14
TORSDOF 7
REMARK  Name = ../refined-set-2016/3ery/3ery_pocket.pdb
REMARK  346 active torsions:
REMARK  status: ('A' for Active; 'I' for Inactive)
REMARK    1  A    between atoms: _1  and  _3
REMARK    2  A    between atoms: _3  and  _4
REMARK    3  A    between atoms: _3  and  _6
REMARK    4  A    between atoms: _6  and  _7
REMARK    5  A    between atoms: _7  and  _8
REMARK    6  A    between atoms: _10  and  _12
REMARK    7  A    between atoms: _12  and  _13
REMARK    8  A    between atoms: _12  and  _15
REMARK    9  A    between atoms: _15  and  _16
REMARK   10  A    between atoms: _16  and  _17
REMARK   11  A    between atoms: _17  and  _18
REMARK   12  A    between atoms: _27  and  _29
REMARK   13  A    between atoms: _29  and  _30
REMARK   14  A    between atoms: _29  and  _32
REMARK   15  A    between atoms: _32  and  _33
REMARK   16  A    between atoms: _38  and  _39
REMARK   17  A    between atoms: _41  and  _43
REMARK   18  A    between atoms: _43  and  _44
REMARK   19  A    between atoms: _43  and  _46
REMARK   20  A    between atoms: _46  and  _47
REMARK   21  A    between atoms: _52  and  _53
REMARK   22  A    between atoms: _55  and  _57
REMARK   23  A    between atoms: _57  and  _58
REMARK   24  A    between atoms: _57  and  _60
REMARK   25  A    between atoms: _60  and  _61
REMARK   26  A    between atoms: _61  and  _62
REMARK   27  A    between atoms: _65  and  _67
REMARK   28  A    between atoms: _67  and  _68
REMARK   29  A    between atoms: _67  and  _70
REMARK   30  A    between atoms: _70  and  _71
REMARK   31  A    between atoms: _76  and  _77
REMARK   32  A    between atoms: _79  and  _81
REMARK   33  A    between atoms: _81  and  _82
REMARK   34  A    between atoms: _81  and  _84
REMARK   35  A    between atoms: _84  and  _85
REMARK   36  A    between atoms: _87  and  _89
REMARK   37  A    between atoms: _89  and  _90
REMARK   38  A    between atoms: _89  and  _92
REMARK   39  A    between atoms: _95  and  _97
REMARK   40  A    between atoms: _97  and  _98
REMARK   41  A    between atoms: _100  and  _102
REMARK   42  A    between atoms: _102  and  _103
REMARK   43  A    between atoms: _102  and  _105
REMARK   44  A    between atoms: _105  and  _106
REMARK   45  A    between atoms: _112  and  _114
REMARK   46  A    between atoms: _114  and  _115
REMARK   47  A    between atoms: _114  and  _117
REMARK   48  A    between atoms: _120  and  _122
REMARK   49  A    between atoms: _122  and  _123
REMARK   50  A    between atoms: _122  and  _125
REMARK   51  A    between atoms: _125  and  _126
REMARK   52  A    between atoms: _132  and  _134
REMARK   53  A    between atoms: _134  and  _135
REMARK   54  A    between atoms: _134  and  _137
REMARK   55  A    between atoms: _137  and  _138
REMARK   56  A    between atoms: _143  and  _144
REMARK   57  A    between atoms: _146  and  _148
REMARK   58  A    between atoms: _148  and  _149
REMARK   59  A    between atoms: _148  and  _151
REMARK   60  A    between atoms: _151  and  _152
REMARK   61  A    between atoms: _152  and  _153
REMARK   62  A    between atoms: _156  and  _158
REMARK   63  A    between atoms: _158  and  _159
REMARK   64  A    between atoms: _158  and  _161
REMARK   65  A    between atoms: _161  and  _162
REMARK   66  A    between atoms: _162  and  _163
REMARK   67  A    between atoms: _166  and  _168
REMARK   68  A    between atoms: _168  and  _169
REMARK   69  A    between atoms: _168  and  _171
REMARK   70  A    between atoms: _171  and  _172
REMARK   71  A    between atoms: _177  and  _178
REMARK   72  A    between atoms: _180  and  _182
REMARK   73  A    between atoms: _182  and  _183
REMARK   74  A    between atoms: _182  and  _185
REMARK   75  A    between atoms: _185  and  _186
REMARK   76  A    between atoms: _196  and  _198
REMARK   77  A    between atoms: _198  and  _199
REMARK   78  A    between atoms: _198  and  _201
REMARK   79  A    between atoms: _201  and  _202
REMARK   80  A    between atoms: _202  and  _203
REMARK   81  A    between atoms: _206  and  _208
REMARK   82  A    between atoms: _208  and  _209
REMARK   83  A    between atoms: _208  and  _211
REMARK   84  A    between atoms: _211  and  _212
REMARK   85  A    between atoms: _212  and  _213
REMARK   86  A    between atoms: _213  and  _214
REMARK   87  A    between atoms: _223  and  _225
REMARK   88  A    between atoms: _225  and  _226
REMARK   89  A    between atoms: _225  and  _228
REMARK   90  A    between atoms: _228  and  _229
REMARK   91  A    between atoms: _232  and  _234
REMARK   92  A    between atoms: _234  and  _235
REMARK   93  A    between atoms: _234  and  _237
REMARK   94  A    between atoms: _237  and  _238
REMARK   95  A    between atoms: _241  and  _243
REMARK   96  A    between atoms: _243  and  _244
REMARK   97  A    between atoms: _243  and  _246
REMARK   98  A    between atoms: _246  and  _247
REMARK   99  A    between atoms: _247  and  _248
REMARK  100  A    between atoms: _253  and  _255
REMARK  101  A    between atoms: _255  and  _256
REMARK  102  A    between atoms: _255  and  _258
REMARK  103  A    between atoms: _261  and  _263
REMARK  104  A    between atoms: _263  and  _264
REMARK  105  A    between atoms: _267  and  _269
REMARK  106  A    between atoms: _269  and  _270
REMARK  107  A    between atoms: _269  and  _272
REMARK  108  A    between atoms: _272  and  _273
REMARK  109  A    between atoms: _273  and  _274
REMARK  110  A    between atoms: _274  and  _275
REMARK  111  A    between atoms: _275  and  _276
REMARK  112  A    between atoms: _280  and  _282
REMARK  113  A    between atoms: _282  and  _283
REMARK  114  A    between atoms: _285  and  _287
REMARK  115  A    between atoms: _287  and  _288
REMARK  116  A    between atoms: _287  and  _290
REMARK  117  A    between atoms: _290  and  _291
REMARK  118  A    between atoms: _291  and  _292
REMARK  119  A    between atoms: _297  and  _299
REMARK  120  A    between atoms: _299  and  _300
REMARK  121  A    between atoms: _299  and  _302
REMARK  122  A    between atoms: _302  and  _303
REMARK  123  A    between atoms: _303  and  _304
REMARK  124  A    between atoms: _309  and  _311
REMARK  125  A    between atoms: _311  and  _312
REMARK  126  A    between atoms: _311  and  _314
REMARK  127  A    between atoms: _314  and  _315
REMARK  128  A    between atoms: _325  and  _327
REMARK  129  A    between atoms: _327  and  _328
REMARK  130  A    between atoms: _327  and  _330
REMARK  131  A    between atoms: _330  and  _331
REMARK  132  A    between atoms: _337  and  _339
REMARK  133  A    between atoms: _339  and  _340
REMARK  134  A    between atoms: _339  and  _342
REMARK  135  A    between atoms: _345  and  _347
REMARK  136  A    between atoms: _347  and  _348
REMARK  137  A    between atoms: _347  and  _350
REMARK  138  A    between atoms: _350  and  _351
REMARK  139  A    between atoms: _356  and  _358
REMARK  140  A    between atoms: _358  and  _359
REMARK  141  A    between atoms: _358  and  _361
REMARK  142  A    between atoms: _361  and  _362
REMARK  143  A    between atoms: _365  and  _367
REMARK  144  A    between atoms: _367  and  _368
REMARK  145  A    between atoms: _367  and  _370
REMARK  146  A    between atoms: _370  and  _371
REMARK  147  A    between atoms: _371  and  _372
REMARK  148  A    between atoms: _372  and  _373
REMARK  149  A    between atoms: _382  and  _384
REMARK  150  A    between atoms: _384  and  _385
REMARK  151  A    between atoms: _384  and  _387
REMARK  152  A    between atoms: _387  and  _388
REMARK  153  A    between atoms: _391  and  _393
REMARK  154  A    between atoms: _393  and  _394
REMARK  155  A    between atoms: _393  and  _396
REMARK  156  A    between atoms: _396  and  _397
REMARK  157  A    between atoms: _400  and  _402
REMARK  158  A    between atoms: _402  and  _403
REMARK  159  A    between atoms: _402  and  _405
REMARK  160  A    between atoms: _405  and  _406
REMARK  161  A    between atoms: _409  and  _411
REMARK  162  A    between atoms: _411  and  _412
REMARK  163  A    between atoms: _411  and  _414
REMARK  164  A    between atoms: _414  and  _415
REMARK  165  A    between atoms: _420  and  _421
REMARK  166  A    between atoms: _423  and  _425
REMARK  167  A    between atoms: _425  and  _426
REMARK  168  A    between atoms: _425  and  _428
REMARK  169  A    between atoms: _428  and  _429
REMARK  170  A    between atoms: _432  and  _434
REMARK  171  A    between atoms: _434  and  _435
REMARK  172  A    between atoms: _434  and  _437
REMARK  173  A    between atoms: _437  and  _438
REMARK  174  A    between atoms: _438  and  _439
REMARK  175  A    between atoms: _444  and  _446
REMARK  176  A    between atoms: _446  and  _447
REMARK  177  A    between atoms: _446  and  _449
REMARK  178  A    between atoms: _449  and  _450
REMARK  179  A    between atoms: _450  and  _451
REMARK  180  A    between atoms: _451  and  _452
REMARK  181  A    between atoms: _461  and  _463
REMARK  182  A    between atoms: _463  and  _464
REMARK  183  A    between atoms: _463  and  _466
REMARK  184  A    between atoms: _466  and  _467
REMARK  185  A    between atoms: _472  and  _473
REMARK  186  A    between atoms: _475  and  _477
REMARK  187  A    between atoms: _477  and  _478
REMARK  188  A    between atoms: _480  and  _482
REMARK  189  A    between atoms: _482  and  _483
REMARK  190  A    between atoms: _482  and  _485
REMARK  191  A    between atoms: _485  and  _486
REMARK  192  A    between atoms: _491  and  _492
REMARK  193  A    between atoms: _494  and  _496
REMARK  194  A    between atoms: _496  and  _497
REMARK  195  A    between atoms: _496  and  _499
REMARK  196  A    between atoms: _499  and  _500
REMARK  197  A    between atoms: _500  and  _501
REMARK  198  A    between atoms: _504  and  _506
REMARK  199  A    between atoms: _506  and  _507
REMARK  200  A    between atoms: _506  and  _509
REMARK  201  A    between atoms: _509  and  _510
REMARK  202  A    between atoms: _516  and  _518
REMARK  203  A    between atoms: _518  and  _519
REMARK  204  A    between atoms: _522  and  _524
REMARK  205  A    between atoms: _524  and  _525
REMARK  206  A    between atoms: _524  and  _527
REMARK  207  A    between atoms: _527  and  _528
REMARK  208  A    between atoms: _533  and  _534
REMARK  209  A    between atoms: _536  and  _538
REMARK  210  A    between atoms: _538  and  _539
REMARK  211  A    between atoms: _538  and  _541
REMARK  212  A    between atoms: _541  and  _542
REMARK  213  A    between atoms: _547  and  _548
REMARK  214  A    between atoms: _550  and  _552
REMARK  215  A    between atoms: _552  and  _553
REMARK  216  A    between atoms: _552  and  _555
REMARK  217  A    between atoms: _555  and  _556
REMARK  218  A    between atoms: _559  and  _561
REMARK  219  A    between atoms: _561  and  _562
REMARK  220  A    between atoms: _561  and  _564
REMARK  221  A    between atoms: _564  and  _565
REMARK  222  A    between atoms: _575  and  _577
REMARK  223  A    between atoms: _577  and  _578
REMARK  224  A    between atoms: _581  and  _583
REMARK  225  A    between atoms: _583  and  _584
REMARK  226  A    between atoms: _587  and  _589
REMARK  227  A    between atoms: _589  and  _590
REMARK  228  A    between atoms: _589  and  _592
REMARK  229  A    between atoms: _592  and  _593
REMARK  230  A    between atoms: _593  and  _594
REMARK  231  A    between atoms: _599  and  _601
REMARK  232  A    between atoms: _601  and  _602
REMARK  233  A    between atoms: _601  and  _604
REMARK  234  A    between atoms: _604  and  _605
REMARK  235  A    between atoms: _608  and  _610
REMARK  236  A    between atoms: _610  and  _611
REMARK  237  A    between atoms: _610  and  _613
REMARK  238  A    between atoms: _613  and  _614
REMARK  239  A    between atoms: _617  and  _619
REMARK  240  A    between atoms: _619  and  _620
REMARK  241  A    between atoms: _619  and  _622
REMARK  242  A    between atoms: _622  and  _623
REMARK  243  A    between atoms: _623  and  _624
REMARK  244  A    between atoms: _624  and  _625
REMARK  245  A    between atoms: _634  and  _636
REMARK  246  A    between atoms: _636  and  _637
REMARK  247  A    between atoms: _636  and  _639
REMARK  248  A    between atoms: _639  and  _640
REMARK  249  A    between atoms: _640  and  _641
REMARK  250  A    between atoms: _641  and  _642
REMARK  251  A    between atoms: _651  and  _653
REMARK  252  A    between atoms: _653  and  _654
REMARK  253  A    between atoms: _653  and  _656
REMARK  254  A    between atoms: _656  and  _657
REMARK  255  A    between atoms: _657  and  _658
REMARK  256  A    between atoms: _658  and  _659
REMARK  257  A    between atoms: _659  and  _660
REMARK  258  A    between atoms: _664  and  _666
REMARK  259  A    between atoms: _666  and  _667
REMARK  260  A    between atoms: _666  and  _669
REMARK  261  A    between atoms: _669  and  _670
REMARK  262  A    between atoms: _680  and  _682
REMARK  263  A    between atoms: _682  and  _683
REMARK  264  A    between atoms: _682  and  _685
REMARK  265  A    between atoms: _685  and  _686
REMARK  266  A    between atoms: _686  and  _687
REMARK  267  A    between atoms: _690  and  _692
REMARK  268  A    between atoms: _692  and  _693
REMARK  269  A    between atoms: _692  and  _695
REMARK  270  A    between atoms: _695  and  _696
REMARK  271  A    between atoms: _696  and  _697
REMARK  272  A    between atoms: _702  and  _704
REMARK  273  A    between atoms: _704  and  _705
REMARK  274  A    between atoms: _708  and  _710
REMARK  275  A    between atoms: _710  and  _711
REMARK  276  A    between atoms: _713  and  _715
REMARK  277  A    between atoms: _715  and  _716
REMARK  278  A    between atoms: _719  and  _721
REMARK  279  A    between atoms: _721  and  _722
REMARK  280  A    between atoms: _725  and  _727
REMARK  281  A    between atoms: _727  and  _728
REMARK  282  A    between atoms: _727  and  _730
REMARK  283  A    between atoms: _730  and  _731
REMARK  284  A    between atoms: _731  and  _732
REMARK  285  A    between atoms: _735  and  _737
REMARK  286  A    between atoms: _737  and  _738
REMARK  287  A    between atoms: _737  and  _740
REMARK  288  A    between atoms: _740  and  _741
REMARK  289  A    between atoms: _746  and  _747
REMARK  290  A    between atoms: _749  and  _751
REMARK  291  A    between atoms: _751  and  _752
REMARK  292  A    between atoms: _751  and  _754
REMARK  293  A    between atoms: _754  and  _755
REMARK  294  A    between atoms: _760  and  _761
REMARK  295  A    between atoms: _763  and  _765
REMARK  296  A    between atoms: _765  and  _766
REMARK  297  A    between atoms: _765  and  _768
REMARK  298  A    between atoms: _768  and  _769
REMARK  299  A    between atoms: _769  and  _770
REMARK  300  A    between atoms: _770  and  _771
REMARK  301  A    between atoms: _780  and  _782
REMARK  302  A    between atoms: _782  and  _783
REMARK  303  A    between atoms: _786  and  _788
REMARK  304  A    between atoms: _788  and  _789
REMARK  305  A    between atoms: _788  and  _791
REMARK  306  A    between atoms: _791  and  _792
REMARK  307  A    between atoms: _797  and  _798
REMARK  308  A    between atoms: _800  and  _802
REMARK  309  A    between atoms: _802  and  _803
REMARK  310  A    between atoms: _802  and  _805
REMARK  311  A    between atoms: _805  and  _806
REMARK  312  A    between atoms: _809  and  _811
REMARK  313  A    between atoms: _811  and  _812
REMARK  314  A    between atoms: _811  and  _814
REMARK  315  A    between atoms: _814  and  _815
REMARK  316  A    between atoms: _815  and  _816
REMARK  317  A    between atoms: _819  and  _821
REMARK  318  A    between atoms: _821  and  _822
REMARK  319  A    between atoms: _821  and  _824
REMARK  320  A    between atoms: _826  and  _828
REMARK  321  A    between atoms: _828  and  _829
REMARK  322  A    between atoms: _828  and  _831
REMARK  323  A    between atoms: _834  and  _836
REMARK  324  A    between atoms: _836  and  _837
REMARK  325  A    between atoms: _836  and  _839
REMARK  326  A    between atoms: _839  and  _840
REMARK  327  A    between atoms: _840  and  _841
REMARK  328  A    between atoms: _844  and  _846
REMARK  329  A    between atoms: _846  and  _847
REMARK  330  A    between atoms: _846  and  _849
REMARK  331  A    between atoms: _849  and  _850
REMARK  332  A    between atoms: _860  and  _862
REMARK  333  A    between atoms: _862  and  _863
REMARK  334  A    between atoms: _862  and  _865
REMARK  335  A    between atoms: _865  and  _866
REMARK  336  A    between atoms: _869  and  _871
REMARK  337  A    between atoms: _871  and  _872
REMARK  338  A    between atoms: _871  and  _874
REMARK  339  A    between atoms: _874  and  _875
REMARK  340  A    between atoms: _875  and  _876
REMARK  341  A    between atoms: _876  and  _877
REMARK  342  A    between atoms: _886  and  _888
REMARK  343  A    between atoms: _888  and  _889
REMARK  344  A    between atoms: _888  and  _891
REMARK  345  A    between atoms: _891  and  _892
REMARK  346  A    between atoms: _897  and  _898
REMARK                            x       y       z     vdW  Elec       q    Type
REMARK                         _______ _______ _______ _____ _____    ______ ____
ROOT
ATOM      1  CB  PHE A   1      -3.983 -21.602  -9.336  0.00  0.00    +0.051 C 
ENDROOT
BRANCH   1   2
ATOM      2  CG  PHE A   1      -3.510 -22.800  -8.535  0.00  0.00    -0.020 A 
ATOM      3  CD2 PHE A   1      -3.740 -22.880  -7.163  0.00  0.00    -0.004 A 
ATOM      4  CE2 PHE A   1      -3.341 -24.008  -6.435  0.00  0.00    -0.000 A 
ATOM      5  CZ  PHE A   1      -2.711 -25.061  -7.077  0.00  0.00    -0.000 A 
ATOM      6  CE1 PHE A   1      -2.475 -24.996  -8.437  0.00  0.00    -0.000 A 
ATOM      7  CD1 PHE A   1      -2.874 -23.865  -9.162  0.00  0.00    -0.004 A 
ENDBRANCH   1   2
BRANCH   1   8
ATOM      8  CA  PHE A   1      -5.469 -21.662  -9.709  0.00  0.00    +0.137 C 
BRANCH   8   9
ATOM      9  N   PHE A   1      -5.908 -20.455 -10.407  0.00  0.00    -0.239 NA
ATOM     10  H   PHE A   1      -5.980 -19.568  -9.868  0.00  0.00    +0.142 HD
ENDBRANCH   8   9
BRANCH   8  11
ATOM     11  C   PHE A   1      -6.313 -21.765  -8.441  0.00  0.00    +0.224 C 
ATOM     12  O   PHE A   1      -6.584 -20.755  -7.778  0.00  0.00    -0.287 OA
ENDBRANCH   8  11
ENDBRANCH   1   8
TORSDOF 4
REMARK  Name = ../refined-set-2016/3ery/3ery_pocket.pdb
REMARK  346 active torsions:
REMARK  status: ('A' for Active; 'I' for Inactive)
REMARK    1  A    between atoms: _1  and  _3
REMARK    2  A    between atoms: _3  and  _4
REMARK    3  A    between atoms: _3  and  _6
REMARK    4  A    between atoms: _6  and  _7
REMARK    5  A    between atoms: _7  and  _8
REMARK    6  A    between atoms: _10  and  _12
REMARK    7  A    between atoms: _12  and  _13
REMARK    8  A    between atoms: _12  and  _15
REMARK    9  A    between atoms: _15  and  _16
REMARK   10  A    between atoms: _16  and  _17
REMARK   11  A    between atoms: _17  and  _18
REMARK   12  A    between atoms: _27  and  _29
REMARK   13  A    between atoms: _29  and  _30
REMARK   14  A    between atoms: _29  and  _32
REMARK   15  A    between atoms: _32  and  _33
REMARK   16  A    between atoms: _38  and  _39
REMARK   17  A    between atoms: _41  and  _43
REMARK   18  A    between atoms: _43  and  _44
REMARK   19  A    between atoms: _43  and  _46
REMARK   20  A    between atoms: _46  and  _47
REMARK   21  A    between atoms: _52  and  _53
REMARK   22  A    between atoms: _55  and  _57
REMARK   23  A    between atoms: _57  and  _58
REMARK   24  A    between atoms: _57  and  _60
REMARK   25  A    between atoms: _60  and  _61
REMARK   26  A    between atoms: _61  and  _62
REMARK   27  A    between atoms: _65  and  _67
REMARK   28  A    between atoms: _67  and  _68
REMARK   29  A    between atoms: _67  and  _70
REMARK   30  A    between atoms: _70  and  _71
REMARK   31  A    between atoms: _76  and  _77
REMARK   32  A    between atoms: _79  and  _81
REMARK   33  A    between atoms: _81  and  _82
REMARK   34  A    between atoms: _81  and  _84
REMARK   35  A    between atoms: _84  and  _85
REMARK   36  A    between atoms: _87  and  _89
REMARK   37  A    between atoms: _89  and  _90
REMARK   38  A    between atoms: _89  and  _92
REMARK   39  A    between atoms: _95  and  _97
REMARK   40  A    between atoms: _97  and  _98
REMARK   41  A    between atoms: _100  and  _102
REMARK   42  A    between atoms: _102  and  _103
REMARK   43  A    between atoms: _102  and  _105
REMARK   44  A    between atoms: _105  and  _106
REMARK   45  A    between atoms: _112  and  _114
REMARK   46  A    between atoms: _114  and  _115
REMARK   47  A    between atoms: _114  and  _117
REMARK   48  A    between atoms: _120  and  _122
REMARK   49  A    between atoms: _122  and  _123
REMARK   50  A    between atoms: _122  and  _125
REMARK   51  A    between atoms: _125  and  _126
REMARK   52  A    between atoms: _132  and  _134
REMARK   53  A    between atoms: _134  and  _135
REMARK   54  A    between atoms: _134  and  _137
REMARK   55  A    between atoms: _137  and  _138
REMARK   56  A    between atoms: _143  and  _144
REMARK   57  A    between atoms: _146  and  _148
REMARK   58  A    between atoms: _148  and  _149
REMARK   59  A    between atoms: _148  and  _151
REMARK   60  A    between atoms: _151  and  _152
REMARK   61  A    between atoms: _152  and  _153
REMARK   62  A    between atoms: _156  and  _158
REMARK   63  A    between atoms: _158  and  _159
REMARK   64  A    between atoms: _158  and  _161
REMARK   65  A    between atoms: _161  and  _162
REMARK   66  A    between atoms: _162  and  _163
REMARK   67  A    between atoms: _166  and  _168
REMARK   68  A    between atoms: _168  and  _169
REMARK   69  A    between atoms: _168  and  _171
REMARK   70  A    between atoms: _171  and  _172
REMARK   71  A    between atoms: _177  and  _178
REMARK   72  A    between atoms: _180  and  _182
REMARK   73  A    between atoms: _182  and  _183
REMARK   74  A    between atoms: _182  and  _185
REMARK   75  A    between atoms: _185  and  _186
REMARK   76  A    between atoms: _196  and  _198
REMARK   77  A    between atoms: _198  and  _199
REMARK   78  A    between atoms: _198  and  _201
REMARK   79  A    between atoms: _201  and  _202
REMARK   80  A    between atoms: _202  and  _203
REMARK   81  A    between atoms: _206  and  _208
REMARK   82  A    between atoms: _208  and  _209
REMARK   83  A    between atoms: _208  and  _211
REMARK   84  A    between atoms: _211  and  _212
REMARK   85  A    between atoms: _212  and  _213
REMARK   86  A    between atoms: _213  and  _214
REMARK   87  A    between atoms: _223  and  _225
REMARK   88  A    between atoms: _225  and  _226
REMARK   89  A    between atoms: _225  and  _228
REMARK   90  A    between atoms: _228  and  _229
REMARK   91  A    between atoms: _232  and  _234
REMARK   92  A    between atoms: _234  and  _235
REMARK   93  A    between atoms: _234  and  _237
REMARK   94  A    between atoms: _237  and  _238
REMARK   95  A    between atoms: _241  and  _243
REMARK   96  A    between atoms: _243  and  _244
REMARK   97  A    between atoms: _243  and  _246
REMARK   98  A    between atoms: _246  and  _247
REMARK   99  A    between atoms: _247  and  _248
REMARK  100  A    between atoms: _253  and  _255
REMARK  101  A    between atoms: _255  and  _256
REMARK  102  A    between atoms: _255  and  _258
REMARK  103  A    between atoms: _261  and  _263
REMARK  104  A    between atoms: _263  and  _264
REMARK  105  A    between atoms: _267  and  _269
REMARK  106  A    between atoms: _269  and  _270
REMARK  107  A    between atoms: _269  and  _272
REMARK  108  A    between atoms: _272  and  _273
REMARK  109  A    between atoms: _273  and  _274
REMARK  110  A    between atoms: _274  and  _275
REMARK  111  A    between atoms: _275  and  _276
REMARK  112  A    between atoms: _280  and  _282
REMARK  113  A    between atoms: _282  and  _283
REMARK  114  A    between atoms: _285  and  _287
REMARK  115  A    between atoms: _287  and  _288
REMARK  116  A    between atoms: _287  and  _290
REMARK  117  A    between atoms: _290  and  _291
REMARK  118  A    between atoms: _291  and  _292
REMARK  119  A    between atoms: _297  and  _299
REMARK  120  A    between atoms: _299  and  _300
REMARK  121  A    between atoms: _299  and  _302
REMARK  122  A    between atoms: _302  and  _303
REMARK  123  A    between atoms: _303  and  _304
REMARK  124  A    between atoms: _309  and  _311
REMARK  125  A    between atoms: _311  and  _312
REMARK  126  A    between atoms: _311  and  _314
REMARK  127  A    between atoms: _314  and  _315
REMARK  128  A    between atoms: _325  and  _327
REMARK  129  A    between atoms: _327  and  _328
REMARK  130  A    between atoms: _327  and  _330
REMARK  131  A    between atoms: _330  and  _331
REMARK  132  A    between atoms: _337  and  _339
REMARK  133  A    between atoms: _339  and  _340
REMARK  134  A    between atoms: _339  and  _342
REMARK  135  A    between atoms: _345  and  _347
REMARK  136  A    between atoms: _347  and  _348
REMARK  137  A    between atoms: _347  and  _350
REMARK  138  A    between atoms: _350  and  _351
REMARK  139  A    between atoms: _356  and  _358
REMARK  140  A    between atoms: _358  and  _359
REMARK  141  A    between atoms: _358  and  _361
REMARK  142  A    between atoms: _361  and  _362
REMARK  143  A    between atoms: _365  and  _367
REMARK  144  A    between atoms: _367  and  _368
REMARK  145  A    between atoms: _367  and  _370
REMARK  146  A    between atoms: _370  and  _371
REMARK  147  A    between atoms: _371  and  _372
REMARK  148  A    between atoms: _372  and  _373
REMARK  149  A    between atoms: _382  and  _384
REMARK  150  A    between atoms: _384  and  _385
REMARK  151  A    between atoms: _384  and  _387
REMARK  152  A    between atoms: _387  and  _388
REMARK  153  A    between atoms: _391  and  _393
REMARK  154  A    between atoms: _393  and  _394
REMARK  155  A    between atoms: _393  and  _396
REMARK  156  A    between atoms: _396  and  _397
REMARK  157  A    between atoms: _400  and  _402
REMARK  158  A    between atoms: _402  and  _403
REMARK  159  A    between atoms: _402  and  _405
REMARK  160  A    between atoms: _405  and  _406
REMARK  161  A    between atoms: _409  and  _411
REMARK  162  A    between atoms: _411  and  _412
REMARK  163  A    between atoms: _411  and  _414
REMARK  164  A    between atoms: _414  and  _415
REMARK  165  A    between atoms: _420  and  _421
REMARK  166  A    between atoms: _423  and  _425
REMARK  167  A    between atoms: _425  and  _426
REMARK  168  A    between atoms: _425  and  _428
REMARK  169  A    between atoms: _428  and  _429
REMARK  170  A    between atoms: _432  and  _434
REMARK  171  A    between atoms: _434  and  _435
REMARK  172  A    between atoms: _434  and  _437
REMARK  173  A    between atoms: _437  and  _438
REMARK  174  A    between atoms: _438  and  _439
REMARK  175  A    between atoms: _444  and  _446
REMARK  176  A    between atoms: _446  and  _447
REMARK  177  A    between atoms: _446  and  _449
REMARK  178  A    between atoms: _449  and  _450
REMARK  179  A    between atoms: _450  and  _451
REMARK  180  A    between atoms: _451  and  _452
REMARK  181  A    between atoms: _461  and  _463
REMARK  182  A    between atoms: _463  and  _464
REMARK  183  A    between atoms: _463  and  _466
REMARK  184  A    between atoms: _466  and  _467
REMARK  185  A    between atoms: _472  and  _473
REMARK  186  A    between atoms: _475  and  _477
REMARK  187  A    between atoms: _477  and  _478
REMARK  188  A    between atoms: _480  and  _482
REMARK  189  A    between atoms: _482  and  _483
REMARK  190  A    between atoms: _482  and  _485
REMARK  191  A    between atoms: _485  and  _486
REMARK  192  A    between atoms: _491  and  _492
REMARK  193  A    between atoms: _494  and  _496
REMARK  194  A    between atoms: _496  and  _497
REMARK  195  A    between atoms: _496  and  _499
REMARK  196  A    between atoms: _499  and  _500
REMARK  197  A    between atoms: _500  and  _501
REMARK  198  A    between atoms: _504  and  _506
REMARK  199  A    between atoms: _506  and  _507
REMARK  200  A    between atoms: _506  and  _509
REMARK  201  A    between atoms: _509  and  _510
REMARK  202  A    between atoms: _516  and  _518
REMARK  203  A    between atoms: _518  and  _519
REMARK  204  A    between atoms: _522  and  _524
REMARK  205  A    between atoms: _524  and  _525
REMARK  206  A    between atoms: _524  and  _527
REMARK  207  A    between atoms: _527  and  _528
REMARK  208  A    between atoms: _533  and  _534
REMARK  209  A    between atoms: _536  and  _538
REMARK  210  A    between atoms: _538  and  _539
REMARK  211  A    between atoms: _538  and  _541
REMARK  212  A    between atoms: _541  and  _542
REMARK  213  A    between atoms: _547  and  _548
REMARK  214  A    between atoms: _550  and  _552
REMARK  215  A    between atoms: _552  and  _553
REMARK  216  A    between atoms: _552  and  _555
REMARK  217  A    between atoms: _555  and  _556
REMARK  218  A    between atoms: _559  and  _561
REMARK  219  A    between atoms: _561  and  _562
REMARK  220  A    between atoms: _561  and  _564
REMARK  221  A    between atoms: _564  and  _565
REMARK  222  A    between atoms: _575  and  _577
REMARK  223  A    between atoms: _577  and  _578
REMARK  224  A    between atoms: _581  and  _583
REMARK  225  A    between atoms: _583  and  _584
REMARK  226  A    between atoms: _587  and  _589
REMARK  227  A    between atoms: _589  and  _590
REMARK  228  A    between atoms: _589  and  _592
REMARK  229  A    between atoms: _592  and  _593
REMARK  230  A    between atoms: _593  and  _594
REMARK  231  A    between atoms: _599  and  _601
REMARK  232  A    between atoms: _601  and  _602
REMARK  233  A    between atoms: _601  and  _604
REMARK  234  A    between atoms: _604  and  _605
REMARK  235  A    between atoms: _608  and  _610
REMARK  236  A    between atoms: _610  and  _611
REMARK  237  A    between atoms: _610  and  _613
REMARK  238  A    between atoms: _613  and  _614
REMARK  239  A    between atoms: _617  and  _619
REMARK  240  A    between atoms: _619  and  _620
REMARK  241  A    between atoms: _619  and  _622
REMARK  242  A    between atoms: _622  and  _623
REMARK  243  A    between atoms: _623  and  _624
REMARK  244  A    between atoms: _624  and  _625
REMARK  245  A    between atoms: _634  and  _636
REMARK  246  A    between atoms: _636  and  _637
REMARK  247  A    between atoms: _636  and  _639
REMARK  248  A    between atoms: _639  and  _640
REMARK  249  A    between atoms: _640  and  _641
REMARK  250  A    between atoms: _641  and  _642
REMARK  251  A    between atoms: _651  and  _653
REMARK  252  A    between atoms: _653  and  _654
REMARK  253  A    between atoms: _653  and  _656
REMARK  254  A    between atoms: _656  and  _657
REMARK  255  A    between atoms: _657  and  _658
REMARK  256  A    between atoms: _658  and  _659
REMARK  257  A    between atoms: _659  and  _660
REMARK  258  A    between atoms: _664  and  _666
REMARK  259  A    between atoms: _666  and  _667
REMARK  260  A    between atoms: _666  and  _669
REMARK  261  A    between atoms: _669  and  _670
REMARK  262  A    between atoms: _680  and  _682
REMARK  263  A    between atoms: _682  and  _683
REMARK  264  A    between atoms: _682  and  _685
REMARK  265  A    between atoms: _685  and  _686
REMARK  266  A    between atoms: _686  and  _687
REMARK  267  A    between atoms: _690  and  _692
REMARK  268  A    between atoms: _692  and  _693
REMARK  269  A    between atoms: _692  and  _695
REMARK  270  A    between atoms: _695  and  _696
REMARK  271  A    between atoms: _696  and  _697
REMARK  272  A    between atoms: _702  and  _704
REMARK  273  A    between atoms: _704  and  _705
REMARK  274  A    between atoms: _708  and  _710
REMARK  275  A    between atoms: _710  and  _711
REMARK  276  A    between atoms: _713  and  _715
REMARK  277  A    between atoms: _715  and  _716
REMARK  278  A    between atoms: _719  and  _721
REMARK  279  A    between atoms: _721  and  _722
REMARK  280  A    between atoms: _725  and  _727
REMARK  281  A    between atoms: _727  and  _728
REMARK  282  A    between atoms: _727  and  _730
REMARK  283  A    between atoms: _730  and  _731
REMARK  284  A    between atoms: _731  and  _732
REMARK  285  A    between atoms: _735  and  _737
REMARK  286  A    between atoms: _737  and  _738
REMARK  287  A    between atoms: _737  and  _740
REMARK  288  A    between atoms: _740  and  _741
REMARK  289  A    between atoms: _746  and  _747
REMARK  290  A    between atoms: _749  and  _751
REMARK  291  A    between atoms: _751  and  _752
REMARK  292  A    between atoms: _751  and  _754
REMARK  293  A    between atoms: _754  and  _755
REMARK  294  A    between atoms: _760  and  _761
REMARK  295  A    between atoms: _763  and  _765
REMARK  296  A    between atoms: _765  and  _766
REMARK  297  A    between atoms: _765  and  _768
REMARK  298  A    between atoms: _768  and  _769
REMARK  299  A    between atoms: _769  and  _770
REMARK  300  A    between atoms: _770  and  _771
REMARK  301  A    between atoms: _780  and  _782
REMARK  302  A    between atoms: _782  and  _783
REMARK  303  A    between atoms: _786  and  _788
REMARK  304  A    between atoms: _788  and  _789
REMARK  305  A    between atoms: _788  and  _791
REMARK  306  A    between atoms: _791  and  _792
REMARK  307  A    between atoms: _797  and  _798
REMARK  308  A    between atoms: _800  and  _802
REMARK  309  A    between atoms: _802  and  _803
REMARK  310  A    between atoms: _802  and  _805
REMARK  311  A    between atoms: _805  and  _806
REMARK  312  A    between atoms: _809  and  _811
REMARK  313  A    between atoms: _811  and  _812
REMARK  314  A    between atoms: _811  and  _814
REMARK  315  A    between atoms: _814  and  _815
REMARK  316  A    between atoms: _815  and  _816
REMARK  317  A    between atoms: _819  and  _821
REMARK  318  A    between atoms: _821  and  _822
REMARK  319  A    between atoms: _821  and  _824
REMARK  320  A    between atoms: _826  and  _828
REMARK  321  A    between atoms: _828  and  _829
REMARK  322  A    between atoms: _828  and  _831
REMARK  323  A    between atoms: _834  and  _836
REMARK  324  A    between atoms: _836  and  _837
REMARK  325  A    between atoms: _836  and  _839
REMARK  326  A    between atoms: _839  and  _840
REMARK  327  A    between atoms: _840  and  _841
REMARK  328  A    between atoms: _844  and  _846
REMARK  329  A    between atoms: _846  and  _847
REMARK  330  A    between atoms: _846  and  _849
REMARK  331  A    between atoms: _849  and  _850
REMARK  332  A    between atoms: _860  and  _862
REMARK  333  A    between atoms: _862  and  _863
REMARK  334  A    between atoms: _862  and  _865
REMARK  335  A    between atoms: _865  and  _866
REMARK  336  A    between atoms: _869  and  _871
REMARK  337  A    between atoms: _871  and  _872
REMARK  338  A    between atoms: _871  and  _874
REMARK  339  A    between atoms: _874  and  _875
REMARK  340  A    between atoms: _875  and  _876
REMARK  341  A    between atoms: _876  and  _877
REMARK  342  A    between atoms: _886  and  _888
REMARK  343  A    between atoms: _888  and  _889
REMARK  344  A    between atoms: _888  and  _891
REMARK  345  A    between atoms: _891  and  _892
REMARK  346  A    between atoms: _897  and  _898
REMARK                            x       y       z     vdW  Elec       q    Type
REMARK                         _______ _______ _______ _____ _____    ______ ____
ROOT
ATOM      1  CG  TYR A   1      -1.711 -21.387 -12.899  0.00  0.00    -0.020 A 
ATOM      2  CD2 TYR A   1      -0.447 -21.129 -12.380  0.00  0.00    -0.001 A 
ATOM      3  CE2 TYR A   1      -0.208 -20.012 -11.591  0.00  0.00    +0.036 A 
ATOM      4  CZ  TYR A   1      -1.247 -19.134 -11.304  0.00  0.00    +0.134 A 
ATOM      5  CE1 TYR A   1      -2.518 -19.367 -11.810  0.00  0.00    +0.036 A 
ATOM      6  CD1 TYR A   1      -2.741 -20.492 -12.606  0.00  0.00    -0.001 A 
ENDROOT
BRANCH   4   7
ATOM      7  OH  TYR A   1      -1.014 -18.042 -10.491  0.00  0.00    -0.506 OA
ATOM      8  HH  TYR A   1      -0.706 -18.353  -9.603  0.00  0.00    +0.292 HD
ENDBRANCH   4   7
BRANCH   1   9
ATOM      9  CB  TYR A   1      -1.960 -22.598 -13.770  0.00  0.00    +0.051 C 
BRANCH   9  10
ATOM     10  CA  TYR A   1      -3.254 -23.342 -13.439  0.00  0.00    +0.137 C 
BRANCH  10  11
ATOM     11  N   TYR A   1      -2.983 -24.582 -12.739  0.00  0.00    -0.239 NA
ATOM     12  H   TYR A   1      -2.018 -24.969 -12.737  0.00  0.00    +0.142 HD
ENDBRANCH  10  11
BRANCH  10  13
ATOM     13  C   TYR A   1      -3.971 -23.685 -14.730  0.00  0.00    +0.224 C 
ATOM     14  O   TYR A   1      -3.638 -24.667 -15.392  0.00  0.00    -0.287 OA
ENDBRANCH  10  13
ENDBRANCH   9  10
ENDBRANCH   1   9
TORSDOF 5
REMARK  Name = ../refined-set-2016/3ery/3ery_pocket.pdb
REMARK  346 active torsions:
REMARK  status: ('A' for Active; 'I' for Inactive)
REMARK    1  A    between atoms: _1  and  _3
REMARK    2  A    between atoms: _3  and  _4
REMARK    3  A    between atoms: _3  and  _6
REMARK    4  A    between atoms: _6  and  _7
REMARK    5  A    between atoms: _7  and  _8
REMARK    6  A    between atoms: _10  and  _12
REMARK    7  A    between atoms: _12  and  _13
REMARK    8  A    between atoms: _12  and  _15
REMARK    9  A    between atoms: _15  and  _16
REMARK   10  A    between atoms: _16  and  _17
REMARK   11  A    between atoms: _17  and  _18
REMARK   12  A    between atoms: _27  and  _29
REMARK   13  A    between atoms: _29  and  _30
REMARK   14  A    between atoms: _29  and  _32
REMARK   15  A    between atoms: _32  and  _33
REMARK   16  A    between atoms: _38  and  _39
REMARK   17  A    between atoms: _41  and  _43
REMARK   18  A    between atoms: _43  and  _44
REMARK   19  A    between atoms: _43  and  _46
REMARK   20  A    between atoms: _46  and  _47
REMARK   21  A    between atoms: _52  and  _53
REMARK   22  A    between atoms: _55  and  _57
REMARK   23  A    between atoms: _57  and  _58
REMARK   24  A    between atoms: _57  and  _60
REMARK   25  A    between atoms: _60  and  _61
REMARK   26  A    between atoms: _61  and  _62
REMARK   27  A    between atoms: _65  and  _67
REMARK   28  A    between atoms: _67  and  _68
REMARK   29  A    between atoms: _67  and  _70
REMARK   30  A    between atoms: _70  and  _71
REMARK   31  A    between atoms: _76  and  _77
REMARK   32  A    between atoms: _79  and  _81
REMARK   33  A    between atoms: _81  and  _82
REMARK   34  A    between atoms: _81  and  _84
REMARK   35  A    between atoms: _84  and  _85
REMARK   36  A    between atoms: _87  and  _89
REMARK   37  A    between atoms: _89  and  _90
REMARK   38  A    between atoms: _89  and  _92
REMARK   39  A    between atoms: _95  and  _97
REMARK   40  A    between atoms: _97  and  _98
REMARK   41  A    between atoms: _100  and  _102
REMARK   42  A    between atoms: _102  and  _103
REMARK   43  A    between atoms: _102  and  _105
REMARK   44  A    between atoms: _105  and  _106
REMARK   45  A    between atoms: _112  and  _114
REMARK   46  A    between atoms: _114  and  _115
REMARK   47  A    between atoms: _114  and  _117
REMARK   48  A    between atoms: _120  and  _122
REMARK   49  A    between atoms: _122  and  _123
REMARK   50  A    between atoms: _122  and  _125
REMARK   51  A    between atoms: _125  and  _126
REMARK   52  A    between atoms: _132  and  _134
REMARK   53  A    between atoms: _134  and  _135
REMARK   54  A    between atoms: _134  and  _137
REMARK   55  A    between atoms: _137  and  _138
REMARK   56  A    between atoms: _143  and  _144
REMARK   57  A    between atoms: _146  and  _148
REMARK   58  A    between atoms: _148  and  _149
REMARK   59  A    between atoms: _148  and  _151
REMARK   60  A    between atoms: _151  and  _152
REMARK   61  A    between atoms: _152  and  _153
REMARK   62  A    between atoms: _156  and  _158
REMARK   63  A    between atoms: _158  and  _159
REMARK   64  A    between atoms: _158  and  _161
REMARK   65  A    between atoms: _161  and  _162
REMARK   66  A    between atoms: _162  and  _163
REMARK   67  A    between atoms: _166  and  _168
REMARK   68  A    between atoms: _168  and  _169
REMARK   69  A    between atoms: _168  and  _171
REMARK   70  A    between atoms: _171  and  _172
REMARK   71  A    between atoms: _177  and  _178
REMARK   72  A    between atoms: _180  and  _182
REMARK   73  A    between atoms: _182  and  _183
REMARK   74  A    between atoms: _182  and  _185
REMARK   75  A    between atoms: _185  and  _186
REMARK   76  A    between atoms: _196  and  _198
REMARK   77  A    between atoms: _198  and  _199
REMARK   78  A    between atoms: _198  and  _201
REMARK   79  A    between atoms: _201  and  _202
REMARK   80  A    between atoms: _202  and  _203
REMARK   81  A    between atoms: _206  and  _208
REMARK   82  A    between atoms: _208  and  _209
REMARK   83  A    between atoms: _208  and  _211
REMARK   84  A    between atoms: _211  and  _212
REMARK   85  A    between atoms: _212  and  _213
REMARK   86  A    between atoms: _213  and  _214
REMARK   87  A    between atoms: _223  and  _225
REMARK   88  A    between atoms: _225  and  _226
REMARK   89  A    between atoms: _225  and  _228
REMARK   90  A    between atoms: _228  and  _229
REMARK   91  A    between atoms: _232  and  _234
REMARK   92  A    between atoms: _234  and  _235
REMARK   93  A    between atoms: _234  and  _237
REMARK   94  A    between atoms: _237  and  _238
REMARK   95  A    between atoms: _241  and  _243
REMARK   96  A    between atoms: _243  and  _244
REMARK   97  A    between atoms: _243  and  _246
REMARK   98  A    between atoms: _246  and  _247
REMARK   99  A    between atoms: _247  and  _248
REMARK  100  A    between atoms: _253  and  _255
REMARK  101  A    between atoms: _255  and  _256
REMARK  102  A    between atoms: _255  and  _258
REMARK  103  A    between atoms: _261  and  _263
REMARK  104  A    between atoms: _263  and  _264
REMARK  105  A    between atoms: _267  and  _269
REMARK  106  A    between atoms: _269  and  _270
REMARK  107  A    between atoms: _269  and  _272
REMARK  108  A    between atoms: _272  and  _273
REMARK  109  A    between atoms: _273  and  _274
REMARK  110  A    between atoms: _274  and  _275
REMARK  111  A    between atoms: _275  and  _276
REMARK  112  A    between atoms: _280  and  _282
REMARK  113  A    between atoms: _282  and  _283
REMARK  114  A    between atoms: _285  and  _287
REMARK  115  A    between atoms: _287  and  _288
REMARK  116  A    between atoms: _287  and  _290
REMARK  117  A    between atoms: _290  and  _291
REMARK  118  A    between atoms: _291  and  _292
REMARK  119  A    between atoms: _297  and  _299
REMARK  120  A    between atoms: _299  and  _300
REMARK  121  A    between atoms: _299  and  _302
REMARK  122  A    between atoms: _302  and  _303
REMARK  123  A    between atoms: _303  and  _304
REMARK  124  A    between atoms: _309  and  _311
REMARK  125  A    between atoms: _311  and  _312
REMARK  126  A    between atoms: _311  and  _314
REMARK  127  A    between atoms: _314  and  _315
REMARK  128  A    between atoms: _325  and  _327
REMARK  129  A    between atoms: _327  and  _328
REMARK  130  A    between atoms: _327  and  _330
REMARK  131  A    between atoms: _330  and  _331
REMARK  132  A    between atoms: _337  and  _339
REMARK  133  A    between atoms: _339  and  _340
REMARK  134  A    between atoms: _339  and  _342
REMARK  135  A    between atoms: _345  and  _347
REMARK  136  A    between atoms: _347  and  _348
REMARK  137  A    between atoms: _347  and  _350
REMARK  138  A    between atoms: _350  and  _351
REMARK  139  A    between atoms: _356  and  _358
REMARK  140  A    between atoms: _358  and  _359
REMARK  141  A    between atoms: _358  and  _361
REMARK  142  A    between atoms: _361  and  _362
REMARK  143  A    between atoms: _365  and  _367
REMARK  144  A    between atoms: _367  and  _368
REMARK  145  A    between atoms: _367  and  _370
REMARK  146  A    between atoms: _370  and  _371
REMARK  147  A    between atoms: _371  and  _372
REMARK  148  A    between atoms: _372  and  _373
REMARK  149  A    between atoms: _382  and  _384
REMARK  150  A    between atoms: _384  and  _385
REMARK  151  A    between atoms: _384  and  _387
REMARK  152  A    between atoms: _387  and  _388
REMARK  153  A    between atoms: _391  and  _393
REMARK  154  A    between atoms: _393  and  _394
REMARK  155  A    between atoms: _393  and  _396
REMARK  156  A    between atoms: _396  and  _397
REMARK  157  A    between atoms: _400  and  _402
REMARK  158  A    between atoms: _402  and  _403
REMARK  159  A    between atoms: _402  and  _405
REMARK  160  A    between atoms: _405  and  _406
REMARK  161  A    between atoms: _409  and  _411
REMARK  162  A    between atoms: _411  and  _412
REMARK  163  A    between atoms: _411  and  _414
REMARK  164  A    between atoms: _414  and  _415
REMARK  165  A    between atoms: _420  and  _421
REMARK  166  A    between atoms: _423  and  _425
REMARK  167  A    between atoms: _425  and  _426
REMARK  168  A    between atoms: _425  and  _428
REMARK  169  A    between atoms: _428  and  _429
REMARK  170  A    between atoms: _432  and  _434
REMARK  171  A    between atoms: _434  and  _435
REMARK  172  A    between atoms: _434  and  _437
REMARK  173  A    between atoms: _437  and  _438
REMARK  174  A    between atoms: _438  and  _439
REMARK  175  A    between atoms: _444  and  _446
REMARK  176  A    between atoms: _446  and  _447
REMARK  177  A    between atoms: _446  and  _449
REMARK  178  A    between atoms: _449  and  _450
REMARK  179  A    between atoms: _450  and  _451
REMARK  180  A    between atoms: _451  and  _452
REMARK  181  A    between atoms: _461  and  _463
REMARK  182  A    between atoms: _463  and  _464
REMARK  183  A    between atoms: _463  and  _466
REMARK  184  A    between atoms: _466  and  _467
REMARK  185  A    between atoms: _472  and  _473
REMARK  186  A    between atoms: _475  and  _477
REMARK  187  A    between atoms: _477  and  _478
REMARK  188  A    between atoms: _480  and  _482
REMARK  189  A    between atoms: _482  and  _483
REMARK  190  A    between atoms: _482  and  _485
REMARK  191  A    between atoms: _485  and  _486
REMARK  192  A    between atoms: _491  and  _492
REMARK  193  A    between atoms: _494  and  _496
REMARK  194  A    between atoms: _496  and  _497
REMARK  195  A    between atoms: _496  and  _499
REMARK  196  A    between atoms: _499  and  _500
REMARK  197  A    between atoms: _500  and  _501
REMARK  198  A    between atoms: _504  and  _506
REMARK  199  A    between atoms: _506  and  _507
REMARK  200  A    between atoms: _506  and  _509
REMARK  201  A    between atoms: _509  and  _510
REMARK  202  A    between atoms: _516  and  _518
REMARK  203  A    between atoms: _518  and  _519
REMARK  204  A    between atoms: _522  and  _524
REMARK  205  A    between atoms: _524  and  _525
REMARK  206  A    between atoms: _524  and  _527
REMARK  207  A    between atoms: _527  and  _528
REMARK  208  A    between atoms: _533  and  _534
REMARK  209  A    between atoms: _536  and  _538
REMARK  210  A    between atoms: _538  and  _539
REMARK  211  A    between atoms: _538  and  _541
REMARK  212  A    between atoms: _541  and  _542
REMARK  213  A    between atoms: _547  and  _548
REMARK  214  A    between atoms: _550  and  _552
REMARK  215  A    between atoms: _552  and  _553
REMARK  216  A    between atoms: _552  and  _555
REMARK  217  A    between atoms: _555  and  _556
REMARK  218  A    between atoms: _559  and  _561
REMARK  219  A    between atoms: _561  and  _562
REMARK  220  A    between atoms: _561  and  _564
REMARK  221  A    between atoms: _564  and  _565
REMARK  222  A    between atoms: _575  and  _577
REMARK  223  A    between atoms: _577  and  _578
REMARK  224  A    between atoms: _581  and  _583
REMARK  225  A    between atoms: _583  and  _584
REMARK  226  A    between atoms: _587  and  _589
REMARK  227  A    between atoms: _589  and  _590
REMARK  228  A    between atoms: _589  and  _592
REMARK  229  A    between atoms: _592  and  _593
REMARK  230  A    between atoms: _593  and  _594
REMARK  231  A    between atoms: _599  and  _601
REMARK  232  A    between atoms: _601  and  _602
REMARK  233  A    between atoms: _601  and  _604
REMARK  234  A    between atoms: _604  and  _605
REMARK  235  A    between atoms: _608  and  _610
REMARK  236  A    between atoms: _610  and  _611
REMARK  237  A    between atoms: _610  and  _613
REMARK  238  A    between atoms: _613  and  _614
REMARK  239  A    between atoms: _617  and  _619
REMARK  240  A    between atoms: _619  and  _620
REMARK  241  A    between atoms: _619  and  _622
REMARK  242  A    between atoms: _622  and  _623
REMARK  243  A    between atoms: _623  and  _624
REMARK  244  A    between atoms: _624  and  _625
REMARK  245  A    between atoms: _634  and  _636
REMARK  246  A    between atoms: _636  and  _637
REMARK  247  A    between atoms: _636  and  _639
REMARK  248  A    between atoms: _639  and  _640
REMARK  249  A    between atoms: _640  and  _641
REMARK  250  A    between atoms: _641  and  _642
REMARK  251  A    between atoms: _651  and  _653
REMARK  252  A    between atoms: _653  and  _654
REMARK  253  A    between atoms: _653  and  _656
REMARK  254  A    between atoms: _656  and  _657
REMARK  255  A    between atoms: _657  and  _658
REMARK  256  A    between atoms: _658  and  _659
REMARK  257  A    between atoms: _659  and  _660
REMARK  258  A    between atoms: _664  and  _666
REMARK  259  A    between atoms: _666  and  _667
REMARK  260  A    between atoms: _666  and  _669
REMARK  261  A    between atoms: _669  and  _670
REMARK  262  A    between atoms: _680  and  _682
REMARK  263  A    between atoms: _682  and  _683
REMARK  264  A    between atoms: _682  and  _685
REMARK  265  A    between atoms: _685  and  _686
REMARK  266  A    between atoms: _686  and  _687
REMARK  267  A    between atoms: _690  and  _692
REMARK  268  A    between atoms: _692  and  _693
REMARK  269  A    between atoms: _692  and  _695
REMARK  270  A    between atoms: _695  and  _696
REMARK  271  A    between atoms: _696  and  _697
REMARK  272  A    between atoms: _702  and  _704
REMARK  273  A    between atoms: _704  and  _705
REMARK  274  A    between atoms: _708  and  _710
REMARK  275  A    between atoms: _710  and  _711
REMARK  276  A    between atoms: _713  and  _715
REMARK  277  A    between atoms: _715  and  _716
REMARK  278  A    between atoms: _719  and  _721
REMARK  279  A    between atoms: _721  and  _722
REMARK  280  A    between atoms: _725  and  _727
REMARK  281  A    between atoms: _727  and  _728
REMARK  282  A    between atoms: _727  and  _730
REMARK  283  A    between atoms: _730  and  _731
REMARK  284  A    between atoms: _731  and  _732
REMARK  285  A    between atoms: _735  and  _737
REMARK  286  A    between atoms: _737  and  _738
REMARK  287  A    between atoms: _737  and  _740
REMARK  288  A    between atoms: _740  and  _741
REMARK  289  A    between atoms: _746  and  _747
REMARK  290  A    between atoms: _749  and  _751
REMARK  291  A    between atoms: _751  and  _752
REMARK  292  A    between atoms: _751  and  _754
REMARK  293  A    between atoms: _754  and  _755
REMARK  294  A    between atoms: _760  and  _761
REMARK  295  A    between atoms: _763  and  _765
REMARK  296  A    between atoms: _765  and  _766
REMARK  297  A    between atoms: _765  and  _768
REMARK  298  A    between atoms: _768  and  _769
REMARK  299  A    between atoms: _769  and  _770
REMARK  300  A    between atoms: _770  and  _771
REMARK  301  A    between atoms: _780  and  _782
REMARK  302  A    between atoms: _782  and  _783
REMARK  303  A    between atoms: _786  and  _788
REMARK  304  A    between atoms: _788  and  _789
REMARK  305  A    between atoms: _788  and  _791
REMARK  306  A    between atoms: _791  and  _792
REMARK  307  A    between atoms: _797  and  _798
REMARK  308  A    between atoms: _800  and  _802
REMARK  309  A    between atoms: _802  and  _803
REMARK  310  A    between atoms: _802  and  _805
REMARK  311  A    between atoms: _805  and  _806
REMARK  312  A    between atoms: _809  and  _811
REMARK  313  A    between atoms: _811  and  _812
REMARK  314  A    between atoms: _811  and  _814
REMARK  315  A    between atoms: _814  and  _815
REMARK  316  A    between atoms: _815  and  _816
REMARK  317  A    between atoms: _819  and  _821
REMARK  318  A    between atoms: _821  and  _822
REMARK  319  A    between atoms: _821  and  _824
REMARK  320  A    between atoms: _826  and  _828
REMARK  321  A    between atoms: _828  and  _829
REMARK  322  A    between atoms: _828  and  _831
REMARK  323  A    between atoms: _834  and  _836
REMARK  324  A    between atoms: _836  and  _837
REMARK  325  A    between atoms: _836  and  _839
REMARK  326  A    between atoms: _839  and  _840
REMARK  327  A    between atoms: _840  and  _841
REMARK  328  A    between atoms: _844  and  _846
REMARK  329  A    between atoms: _846  and  _847
REMARK  330  A    between atoms: _846  and  _849
REMARK  331  A    between atoms: _849  and  _850
REMARK  332  A    between atoms: _860  and  _862
REMARK  333  A    between atoms: _862  and  _863
REMARK  334  A    between atoms: _862  and  _865
REMARK  335  A    between atoms: _865  and  _866
REMARK  336  A    between atoms: _869  and  _871
REMARK  337  A    between atoms: _871  and  _872
REMARK  338  A    between atoms: _871  and  _874
REMARK  339  A    between atoms: _874  and  _875
REMARK  340  A    between atoms: _875  and  _876
REMARK  341  A    between atoms: _876  and  _877
REMARK  342  A    between atoms: _886  and  _888
REMARK  343  A    between atoms: _888  and  _889
REMARK  344  A    between atoms: _888  and  _891
REMARK  345  A    between atoms: _891  and  _892
REMARK  346  A    between atoms: _897  and  _898
REMARK                            x       y       z     vdW  Elec       q    Type
REMARK                         _______ _______ _______ _____ _____    ______ ____
ROOT
ATOM      1  CA  GLU A   1       0.468 -21.561 -24.479  0.00  0.00    +0.134 C 
ENDROOT
BRANCH   1   2
ATOM      2  N   GLU A   1      -0.765 -21.421 -25.245  0.00  0.00    -0.239 NA
ATOM      3  H   GLU A   1      -1.676 -21.609 -24.780  0.00  0.00    +0.142 HD
ENDBRANCH   1   2
BRANCH   1   4
ATOM      4  C   GLU A   1       0.848 -23.033 -24.413  0.00  0.00    +0.224 C 
ATOM      5  O   GLU A   1       0.001 -23.891 -24.163  0.00  0.00    -0.287 OA
ENDBRANCH   1   4
BRANCH   1   6
ATOM      6  CB  GLU A   1       0.292 -21.015 -23.059  0.00  0.00    +0.037 C 
BRANCH   6   7
ATOM      7  CG  GLU A   1       0.082 -19.510 -22.981  0.00  0.00    +0.116 C 
BRANCH   7   8
ATOM      8  CD  GLU A   1       1.267 -18.724 -23.512  0.00  0.00    +0.365 C 
ATOM      9  OE2 GLU A   1       2.375 -18.850 -22.948  0.00  0.00    -0.246 OA
ATOM     10  OE1 GLU A   1       1.091 -17.979 -24.496  0.00  0.00    -0.246 OA
ENDBRANCH   7   8
ENDBRANCH   6   7
ENDBRANCH   1   6
TORSDOF 5
REMARK  Name = ../refined-set-2016/3ery/3ery_pocket.pdb
REMARK  346 active torsions:
REMARK  status: ('A' for Active; 'I' for Inactive)
REMARK    1  A    between atoms: _1  and  _3
REMARK    2  A    between atoms: _3  and  _4
REMARK    3  A    between atoms: _3  and  _6
REMARK    4  A    between atoms: _6  and  _7
REMARK    5  A    between atoms: _7  and  _8
REMARK    6  A    between atoms: _10  and  _12
REMARK    7  A    between atoms: _12  and  _13
REMARK    8  A    between atoms: _12  and  _15
REMARK    9  A    between atoms: _15  and  _16
REMARK   10  A    between atoms: _16  and  _17
REMARK   11  A    between atoms: _17  and  _18
REMARK   12  A    between atoms: _27  and  _29
REMARK   13  A    between atoms: _29  and  _30
REMARK   14  A    between atoms: _29  and  _32
REMARK   15  A    between atoms: _32  and  _33
REMARK   16  A    between atoms: _38  and  _39
REMARK   17  A    between atoms: _41  and  _43
REMARK   18  A    between atoms: _43  and  _44
REMARK   19  A    between atoms: _43  and  _46
REMARK   20  A    between atoms: _46  and  _47
REMARK   21  A    between atoms: _52  and  _53
REMARK   22  A    between atoms: _55  and  _57
REMARK   23  A    between atoms: _57  and  _58
REMARK   24  A    between atoms: _57  and  _60
REMARK   25  A    between atoms: _60  and  _61
REMARK   26  A    between atoms: _61  and  _62
REMARK   27  A    between atoms: _65  and  _67
REMARK   28  A    between atoms: _67  and  _68
REMARK   29  A    between atoms: _67  and  _70
REMARK   30  A    between atoms: _70  and  _71
REMARK   31  A    between atoms: _76  and  _77
REMARK   32  A    between atoms: _79  and  _81
REMARK   33  A    between atoms: _81  and  _82
REMARK   34  A    between atoms: _81  and  _84
REMARK   35  A    between atoms: _84  and  _85
REMARK   36  A    between atoms: _87  and  _89
REMARK   37  A    between atoms: _89  and  _90
REMARK   38  A    between atoms: _89  and  _92
REMARK   39  A    between atoms: _95  and  _97
REMARK   40  A    between atoms: _97  and  _98
REMARK   41  A    between atoms: _100  and  _102
REMARK   42  A    between atoms: _102  and  _103
REMARK   43  A    between atoms: _102  and  _105
REMARK   44  A    between atoms: _105  and  _106
REMARK   45  A    between atoms: _112  and  _114
REMARK   46  A    between atoms: _114  and  _115
REMARK   47  A    between atoms: _114  and  _117
REMARK   48  A    between atoms: _120  and  _122
REMARK   49  A    between atoms: _122  and  _123
REMARK   50  A    between atoms: _122  and  _125
REMARK   51  A    between atoms: _125  and  _126
REMARK   52  A    between atoms: _132  and  _134
REMARK   53  A    between atoms: _134  and  _135
REMARK   54  A    between atoms: _134  and  _137
REMARK   55  A    between atoms: _137  and  _138
REMARK   56  A    between atoms: _143  and  _144
REMARK   57  A    between atoms: _146  and  _148
REMARK   58  A    between atoms: _148  and  _149
REMARK   59  A    between atoms: _148  and  _151
REMARK   60  A    between atoms: _151  and  _152
REMARK   61  A    between atoms: _152  and  _153
REMARK   62  A    between atoms: _156  and  _158
REMARK   63  A    between atoms: _158  and  _159
REMARK   64  A    between atoms: _158  and  _161
REMARK   65  A    between atoms: _161  and  _162
REMARK   66  A    between atoms: _162  and  _163
REMARK   67  A    between atoms: _166  and  _168
REMARK   68  A    between atoms: _168  and  _169
REMARK   69  A    between atoms: _168  and  _171
REMARK   70  A    between atoms: _171  and  _172
REMARK   71  A    between atoms: _177  and  _178
REMARK   72  A    between atoms: _180  and  _182
REMARK   73  A    between atoms: _182  and  _183
REMARK   74  A    between atoms: _182  and  _185
REMARK   75  A    between atoms: _185  and  _186
REMARK   76  A    between atoms: _196  and  _198
REMARK   77  A    between atoms: _198  and  _199
REMARK   78  A    between atoms: _198  and  _201
REMARK   79  A    between atoms: _201  and  _202
REMARK   80  A    between atoms: _202  and  _203
REMARK   81  A    between atoms: _206  and  _208
REMARK   82  A    between atoms: _208  and  _209
REMARK   83  A    between atoms: _208  and  _211
REMARK   84  A    between atoms: _211  and  _212
REMARK   85  A    between atoms: _212  and  _213
REMARK   86  A    between atoms: _213  and  _214
REMARK   87  A    between atoms: _223  and  _225
REMARK   88  A    between atoms: _225  and  _226
REMARK   89  A    between atoms: _225  and  _228
REMARK   90  A    between atoms: _228  and  _229
REMARK   91  A    between atoms: _232  and  _234
REMARK   92  A    between atoms: _234  and  _235
REMARK   93  A    between atoms: _234  and  _237
REMARK   94  A    between atoms: _237  and  _238
REMARK   95  A    between atoms: _241  and  _243
REMARK   96  A    between atoms: _243  and  _244
REMARK   97  A    between atoms: _243  and  _246
REMARK   98  A    between atoms: _246  and  _247
REMARK   99  A    between atoms: _247  and  _248
REMARK  100  A    between atoms: _253  and  _255
REMARK  101  A    between atoms: _255  and  _256
REMARK  102  A    between atoms: _255  and  _258
REMARK  103  A    between atoms: _261  and  _263
REMARK  104  A    between atoms: _263  and  _264
REMARK  105  A    between atoms: _267  and  _269
REMARK  106  A    between atoms: _269  and  _270
REMARK  107  A    between atoms: _269  and  _272
REMARK  108  A    between atoms: _272  and  _273
REMARK  109  A    between atoms: _273  and  _274
REMARK  110  A    between atoms: _274  and  _275
REMARK  111  A    between atoms: _275  and  _276
REMARK  112  A    between atoms: _280  and  _282
REMARK  113  A    between atoms: _282  and  _283
REMARK  114  A    between atoms: _285  and  _287
REMARK  115  A    between atoms: _287  and  _288
REMARK  116  A    between atoms: _287  and  _290
REMARK  117  A    between atoms: _290  and  _291
REMARK  118  A    between atoms: _291  and  _292
REMARK  119  A    between atoms: _297  and  _299
REMARK  120  A    between atoms: _299  and  _300
REMARK  121  A    between atoms: _299  and  _302
REMARK  122  A    between atoms: _302  and  _303
REMARK  123  A    between atoms: _303  and  _304
REMARK  124  A    between atoms: _309  and  _311
REMARK  125  A    between atoms: _311  and  _312
REMARK  126  A    between atoms: _311  and  _314
REMARK  127  A    between atoms: _314  and  _315
REMARK  128  A    between atoms: _325  and  _327
REMARK  129  A    between atoms: _327  and  _328
REMARK  130  A    between atoms: _327  and  _330
REMARK  131  A    between atoms: _330  and  _331
REMARK  132  A    between atoms: _337  and  _339
REMARK  133  A    between atoms: _339  and  _340
REMARK  134  A    between atoms: _339  and  _342
REMARK  135  A    between atoms: _345  and  _347
REMARK  136  A    between atoms: _347  and  _348
REMARK  137  A    between atoms: _347  and  _350
REMARK  138  A    between atoms: _350  and  _351
REMARK  139  A    between atoms: _356  and  _358
REMARK  140  A    between atoms: _358  and  _359
REMARK  141  A    between atoms: _358  and  _361
REMARK  142  A    between atoms: _361  and  _362
REMARK  143  A    between atoms: _365  and  _367
REMARK  144  A    between atoms: _367  and  _368
REMARK  145  A    between atoms: _367  and  _370
REMARK  146  A    between atoms: _370  and  _371
REMARK  147  A    between atoms: _371  and  _372
REMARK  148  A    between atoms: _372  and  _373
REMARK  149  A    between atoms: _382  and  _384
REMARK  150  A    between atoms: _384  and  _385
REMARK  151  A    between atoms: _384  and  _387
REMARK  152  A    between atoms: _387  and  _388
REMARK  153  A    between atoms: _391  and  _393
REMARK  154  A    between atoms: _393  and  _394
REMARK  155  A    between atoms: _393  and  _396
REMARK  156  A    between atoms: _396  and  _397
REMARK  157  A    between atoms: _400  and  _402
REMARK  158  A    between atoms: _402  and  _403
REMARK  159  A    between atoms: _402  and  _405
REMARK  160  A    between atoms: _405  and  _406
REMARK  161  A    between atoms: _409  and  _411
REMARK  162  A    between atoms: _411  and  _412
REMARK  163  A    between atoms: _411  and  _414
REMARK  164  A    between atoms: _414  and  _415
REMARK  165  A    between atoms: _420  and  _421
REMARK  166  A    between atoms: _423  and  _425
REMARK  167  A    between atoms: _425  and  _426
REMARK  168  A    between atoms: _425  and  _428
REMARK  169  A    between atoms: _428  and  _429
REMARK  170  A    between atoms: _432  and  _434
REMARK  171  A    between atoms: _434  and  _435
REMARK  172  A    between atoms: _434  and  _437
REMARK  173  A    between atoms: _437  and  _438
REMARK  174  A    between atoms: _438  and  _439
REMARK  175  A    between atoms: _444  and  _446
REMARK  176  A    between atoms: _446  and  _447
REMARK  177  A    between atoms: _446  and  _449
REMARK  178  A    between atoms: _449  and  _450
REMARK  179  A    between atoms: _450  and  _451
REMARK  180  A    between atoms: _451  and  _452
REMARK  181  A    between atoms: _461  and  _463
REMARK  182  A    between atoms: _463  and  _464
REMARK  183  A    between atoms: _463  and  _466
REMARK  184  A    between atoms: _466  and  _467
REMARK  185  A    between atoms: _472  and  _473
REMARK  186  A    between atoms: _475  and  _477
REMARK  187  A    between atoms: _477  and  _478
REMARK  188  A    between atoms: _480  and  _482
REMARK  189  A    between atoms: _482  and  _483
REMARK  190  A    between atoms: _482  and  _485
REMARK  191  A    between atoms: _485  and  _486
REMARK  192  A    between atoms: _491  and  _492
REMARK  193  A    between atoms: _494  and  _496
REMARK  194  A    between atoms: _496  and  _497
REMARK  195  A    between atoms: _496  and  _499
REMARK  196  A    between atoms: _499  and  _500
REMARK  197  A    between atoms: _500  and  _501
REMARK  198  A    between atoms: _504  and  _506
REMARK  199  A    between atoms: _506  and  _507
REMARK  200  A    between atoms: _506  and  _509
REMARK  201  A    between atoms: _509  and  _510
REMARK  202  A    between atoms: _516  and  _518
REMARK  203  A    between atoms: _518  and  _519
REMARK  204  A    between atoms: _522  and  _524
REMARK  205  A    between atoms: _524  and  _525
REMARK  206  A    between atoms: _524  and  _527
REMARK  207  A    between atoms: _527  and  _528
REMARK  208  A    between atoms: _533  and  _534
REMARK  209  A    between atoms: _536  and  _538
REMARK  210  A    between atoms: _538  and  _539
REMARK  211  A    between atoms: _538  and  _541
REMARK  212  A    between atoms: _541  and  _542
REMARK  213  A    between atoms: _547  and  _548
REMARK  214  A    between atoms: _550  and  _552
REMARK  215  A    between atoms: _552  and  _553
REMARK  216  A    between atoms: _552  and  _555
REMARK  217  A    between atoms: _555  and  _556
REMARK  218  A    between atoms: _559  and  _561
REMARK  219  A    between atoms: _561  and  _562
REMARK  220  A    between atoms: _561  and  _564
REMARK  221  A    between atoms: _564  and  _565
REMARK  222  A    between atoms: _575  and  _577
REMARK  223  A    between atoms: _577  and  _578
REMARK  224  A    between atoms: _581  and  _583
REMARK  225  A    between atoms: _583  and  _584
REMARK  226  A    between atoms: _587  and  _589
REMARK  227  A    between atoms: _589  and  _590
REMARK  228  A    between atoms: _589  and  _592
REMARK  229  A    between atoms: _592  and  _593
REMARK  230  A    between atoms: _593  and  _594
REMARK  231  A    between atoms: _599  and  _601
REMARK  232  A    between atoms: _601  and  _602
REMARK  233  A    between atoms: _601  and  _604
REMARK  234  A    between atoms: _604  and  _605
REMARK  235  A    between atoms: _608  and  _610
REMARK  236  A    between atoms: _610  and  _611
REMARK  237  A    between atoms: _610  and  _613
REMARK  238  A    between atoms: _613  and  _614
REMARK  239  A    between atoms: _617  and  _619
REMARK  240  A    between atoms: _619  and  _620
REMARK  241  A    between atoms: _619  and  _622
REMARK  242  A    between atoms: _622  and  _623
REMARK  243  A    between atoms: _623  and  _624
REMARK  244  A    between atoms: _624  and  _625
REMARK  245  A    between atoms: _634  and  _636
REMARK  246  A    between atoms: _636  and  _637
REMARK  247  A    between atoms: _636  and  _639
REMARK  248  A    between atoms: _639  and  _640
REMARK  249  A    between atoms: _640  and  _641
REMARK  250  A    between atoms: _641  and  _642
REMARK  251  A    between atoms: _651  and  _653
REMARK  252  A    between atoms: _653  and  _654
REMARK  253  A    between atoms: _653  and  _656
REMARK  254  A    between atoms: _656  and  _657
REMARK  255  A    between atoms: _657  and  _658
REMARK  256  A    between atoms: _658  and  _659
REMARK  257  A    between atoms: _659  and  _660
REMARK  258  A    between atoms: _664  and  _666
REMARK  259  A    between atoms: _666  and  _667
REMARK  260  A    between atoms: _666  and  _669
REMARK  261  A    between atoms: _669  and  _670
REMARK  262  A    between atoms: _680  and  _682
REMARK  263  A    between atoms: _682  and  _683
REMARK  264  A    between atoms: _682  and  _685
REMARK  265  A    between atoms: _685  and  _686
REMARK  266  A    between atoms: _686  and  _687
REMARK  267  A    between atoms: _690  and  _692
REMARK  268  A    between atoms: _692  and  _693
REMARK  269  A    between atoms: _692  and  _695
REMARK  270  A    between atoms: _695  and  _696
REMARK  271  A    between atoms: _696  and  _697
REMARK  272  A    between atoms: _702  and  _704
REMARK  273  A    between atoms: _704  and  _705
REMARK  274  A    between atoms: _708  and  _710
REMARK  275  A    between atoms: _710  and  _711
REMARK  276  A    between atoms: _713  and  _715
REMARK  277  A    between atoms: _715  and  _716
REMARK  278  A    between atoms: _719  and  _721
REMARK  279  A    between atoms: _721  and  _722
REMARK  280  A    between atoms: _725  and  _727
REMARK  281  A    between atoms: _727  and  _728
REMARK  282  A    between atoms: _727  and  _730
REMARK  283  A    between atoms: _730  and  _731
REMARK  284  A    between atoms: _731  and  _732
REMARK  285  A    between atoms: _735  and  _737
REMARK  286  A    between atoms: _737  and  _738
REMARK  287  A    between atoms: _737  and  _740
REMARK  288  A    between atoms: _740  and  _741
REMARK  289  A    between atoms: _746  and  _747
REMARK  290  A    between atoms: _749  and  _751
REMARK  291  A    between atoms: _751  and  _752
REMARK  292  A    between atoms: _751  and  _754
REMARK  293  A    between atoms: _754  and  _755
REMARK  294  A    between atoms: _760  and  _761
REMARK  295  A    between atoms: _763  and  _765
REMARK  296  A    between atoms: _765  and  _766
REMARK  297  A    between atoms: _765  and  _768
REMARK  298  A    between atoms: _768  and  _769
REMARK  299  A    between atoms: _769  and  _770
REMARK  300  A    between atoms: _770  and  _771
REMARK  301  A    between atoms: _780  and  _782
REMARK  302  A    between atoms: _782  and  _783
REMARK  303  A    between atoms: _786  and  _788
REMARK  304  A    between atoms: _788  and  _789
REMARK  305  A    between atoms: _788  and  _791
REMARK  306  A    between atoms: _791  and  _792
REMARK  307  A    between atoms: _797  and  _798
REMARK  308  A    between atoms: _800  and  _802
REMARK  309  A    between atoms: _802  and  _803
REMARK  310  A    between atoms: _802  and  _805
REMARK  311  A    between atoms: _805  and  _806
REMARK  312  A    between atoms: _809  and  _811
REMARK  313  A    between atoms: _811  and  _812
REMARK  314  A    between atoms: _811  and  _814
REMARK  315  A    between atoms: _814  and  _815
REMARK  316  A    between atoms: _815  and  _816
REMARK  317  A    between atoms: _819  and  _821
REMARK  318  A    between atoms: _821  and  _822
REMARK  319  A    between atoms: _821  and  _824
REMARK  320  A    between atoms: _826  and  _828
REMARK  321  A    between atoms: _828  and  _829
REMARK  322  A    between atoms: _828  and  _831
REMARK  323  A    between atoms: _834  and  _836
REMARK  324  A    between atoms: _836  and  _837
REMARK  325  A    between atoms: _836  and  _839
REMARK  326  A    between atoms: _839  and  _840
REMARK  327  A    between atoms: _840  and  _841
REMARK  328  A    between atoms: _844  and  _846
REMARK  329  A    between atoms: _846  and  _847
REMARK  330  A    between atoms: _846  and  _849
REMARK  331  A    between atoms: _849  and  _850
REMARK  332  A    between atoms: _860  and  _862
REMARK  333  A    between atoms: _862  and  _863
REMARK  334  A    between atoms: _862  and  _865
REMARK  335  A    between atoms: _865  and  _866
REMARK  336  A    between atoms: _869  and  _871
REMARK  337  A    between atoms: _871  and  _872
REMARK  338  A    between atoms: _871  and  _874
REMARK  339  A    between atoms: _874  and  _875
REMARK  340  A    between atoms: _875  and  _876
REMARK  341  A    between atoms: _876  and  _877
REMARK  342  A    between atoms: _886  and  _888
REMARK  343  A    between atoms: _888  and  _889
REMARK  344  A    between atoms: _888  and  _891
REMARK  345  A    between atoms: _891  and  _892
REMARK  346  A    between atoms: _897  and  _898
REMARK                            x       y       z     vdW  Elec       q    Type
REMARK                         _______ _______ _______ _____ _____    ______ ____
ROOT
ATOM      1  CA  ILE A   6       3.618 -22.268 -13.742  0.00  0.00    +0.149 C 
ENDROOT
BRANCH   1   2
ATOM      2  C   ILE A   6       2.775 -22.844 -12.596  0.00  0.00    +0.241 C 
ATOM      3  O   ILE A   6       2.608 -22.209 -11.554  0.00  0.00    -0.273 OA
ATOM      4  N   THR A   7       2.261 -24.058 -12.788  0.00  0.00    -0.295 N 
ATOM      5  H   THR A   7       2.422 -24.537 -13.697  0.00  0.00    +0.150 HD
BRANCH   4   6
ATOM      6  CA  THR A   7       1.478 -24.734 -11.759  0.00  0.00    +0.176 C 
BRANCH   6   7
ATOM      7  C   THR A   7       2.414 -25.086 -10.599  0.00  0.00    +0.243 C 
ATOM      8  O   THR A   7       1.983 -25.189  -9.441  0.00  0.00    -0.273 OA
ATOM      9  N   GLN A   8       3.696 -25.271 -10.917  0.00  0.00    -0.297 N 
ATOM     10  H   GLN A   8       3.984 -25.183 -11.912  0.00  0.00    +0.150 HD
BRANCH   9  11
ATOM     11  CA  GLN A   8       4.714 -25.594  -9.910  0.00  0.00    +0.149 C 
BRANCH  11  12
ATOM     12  C   GLN A   8       4.884 -24.398  -8.982  0.00  0.00    +0.241 C 
ATOM     13  O   GLN A   8       5.085 -24.555  -7.777  0.00  0.00    -0.273 OA
ATOM     14  N   VAL A   9       4.836 -23.202  -9.560  0.00  0.00    -0.297 N 
ATOM     15  H   VAL A   9       4.701 -23.134 -10.589  0.00  0.00    +0.150 HD
BRANCH  14  16
ATOM     16  CA  VAL A   9       4.969 -21.989  -8.774  0.00  0.00    +0.149 C 
BRANCH  16  17
ATOM     17  C   VAL A   9       3.807 -21.971  -7.787  0.00  0.00    +0.241 C 
ATOM     18  O   VAL A   9       3.995 -21.680  -6.609  0.00  0.00    -0.273 OA
ATOM     19  N   ALA A  10       2.615 -22.315  -8.274  0.00  0.00    -0.297 N 
ATOM     20  H   ALA A  10       2.533 -22.552  -9.283  0.00  0.00    +0.150 HD
BRANCH  19  21
ATOM     21  CA  ALA A  10       1.424 -22.369  -7.437  0.00  0.00    +0.149 C 
ATOM     22  CB  ALA A  10       0.281 -23.043  -8.187  0.00  0.00    +0.031 C 
BRANCH  21  23
ATOM     23  C   ALA A  10       1.724 -23.147  -6.173  0.00  0.00    +0.241 C 
ATOM     24  O   ALA A  10       1.612 -22.616  -5.073  0.00  0.00    -0.273 OA
ATOM     25  N   LYS A  11       2.103 -24.412  -6.339  0.00  0.00    -0.297 N 
ATOM     26  H   LYS A  11       2.170 -24.797  -7.303  0.00  0.00    +0.150 HD
BRANCH  25  27
ATOM     27  CA  LYS A  11       2.427 -25.275  -5.206  0.00  0.00    +0.149 C 
BRANCH  27  28
ATOM     28  C   LYS A  11       3.460 -24.594  -4.324  0.00  0.00    +0.241 C 
ATOM     29  O   LYS A  11       3.379 -24.659  -3.099  0.00  0.00    -0.273 OA
ATOM     30  N   GLY A  12       4.430 -23.945  -4.964  0.00  0.00    -0.295 N 
ATOM     31  H   GLY A  12       4.447 -23.943  -6.004  0.00  0.00    +0.150 HD
BRANCH  30  32
ATOM     32  CA  GLY A  12       5.463 -23.241  -4.229  0.00  0.00    +0.176 C 
BRANCH  32  33
ATOM     33  C   GLY A  12       4.852 -22.105  -3.431  0.00  0.00    +0.243 C 
ATOM     34  O   GLY A  12       5.131 -21.953  -2.242  0.00  0.00    -0.273 OA
ATOM     35  N   GLN A  13       4.012 -21.311  -4.087  0.00  0.00    -0.298 N 
ATOM     36  H   GLN A  13       3.823 -21.495  -5.093  0.00  0.00    +0.150 HD
BRANCH  35  37
ATOM     37  CA  GLN A  13       3.347 -20.187  -3.433  0.00  0.00    +0.137 C 
BRANCH  37  38
ATOM     38  C   GLN A  13       2.431 -20.657  -2.312  0.00  0.00    +0.227 C 
ATOM     39  O   GLN A  13       2.330 -20.015  -1.269  0.00  0.00    -0.286 OA
ENDBRANCH  37  38
BRANCH  37  40
ATOM     40  CB  GLN A  13       2.524 -19.387  -4.444  0.00  0.00    +0.037 C 
BRANCH  40  41
ATOM     41  CG  GLN A  13       3.299 -18.316  -5.172  0.00  0.00    +0.087 C 
BRANCH  41  42
ATOM     42  CD  GLN A  13       3.923 -17.320  -4.222  0.00  0.00    +0.219 C 
ATOM     43  NE2 GLN A  13       3.111 -16.415  -3.701  0.00  0.00    -0.329 N 
ATOM     44 HE21 GLN A  13       3.479 -15.712  -3.028  0.00  0.00    +0.145 HD
ATOM     45 HE22 GLN A  13       2.105 -16.406  -3.964  0.00  0.00    +0.145 HD
ATOM     46  OE1 GLN A  13       5.119 -17.375  -3.946  0.00  0.00    -0.275 OA
ENDBRANCH  41  42
ENDBRANCH  40  41
ENDBRANCH  37  40
ENDBRANCH  35  37
ENDBRANCH  32  33
ENDBRANCH  30  32
ENDBRANCH  27  28
BRANCH  27  47
ATOM     47  CB  LYS A  11       2.973 -26.620  -5.701  0.00  0.00    +0.029 C 
BRANCH  47  48
ATOM     48  CG  LYS A  11       1.984 -27.441  -6.528  0.00  0.00    +0.000 C 
BRANCH  48  49
ATOM     49  CD  LYS A  11       0.757 -27.856  -5.716  0.00  0.00    -0.024 C 
BRANCH  49  50
ATOM     50  CE  LYS A  11      -0.204 -28.695  -6.558  0.00  0.00    -0.086 C 
BRANCH  50  51
ATOM     51  NZ  LYS A  11      -1.479 -29.029  -5.849  0.00  0.00    +0.380 N 
ATOM     52  HZ1 LYS A  11      -1.264 -29.570  -4.987  0.00  0.00    -0.089 HD
ATOM     53  HZ2 LYS A  11      -1.973 -28.150  -5.593  0.00  0.00    -0.089 HD
ATOM     54  HZ3 LYS A  11      -2.084 -29.598  -6.475  0.00  0.00    -0.089 HD
ENDBRANCH  50  51
ENDBRANCH  49  50
ENDBRANCH  48  49
ENDBRANCH  47  48
ENDBRANCH  27  47
ENDBRANCH  25  27
ENDBRANCH  21  23
ENDBRANCH  19  21
ENDBRANCH  16  17
BRANCH  16  55
ATOM     55  CB  VAL A   9       4.936 -20.732  -9.673  0.00  0.00    +0.027 C 
ATOM     56  CG2 VAL A   9       5.111 -19.480  -8.830  0.00  0.00    +0.002 C 
ATOM     57  CG1 VAL A   9       6.052 -20.817 -10.715  0.00  0.00    +0.002 C 
ENDBRANCH  16  55
ENDBRANCH  14  16
ENDBRANCH  11  12
BRANCH  11  58
ATOM     58  CB  GLN A   8       6.068 -25.892 -10.574  0.00  0.00    +0.039 C 
BRANCH  58  59
ATOM     59  CG  GLN A   8       6.068 -27.086 -11.510  0.00  0.00    +0.087 C 
BRANCH  59  60
ATOM     60  CD  GLN A   8       6.012 -28.408 -10.772  0.00  0.00    +0.219 C 
ATOM     61  OE1 GLN A   8       5.155 -28.619  -9.908  0.00  0.00    -0.275 OA
ATOM     62  NE2 GLN A   8       6.927 -29.316 -11.115  0.00  0.00    -0.329 N 
ATOM     63 HE21 GLN A   8       6.937 -30.246 -10.649  0.00  0.00    +0.145 HD
ATOM     64 HE22 GLN A   8       7.630 -29.094 -11.849  0.00  0.00    +0.145 HD
ENDBRANCH  59  60
ENDBRANCH  58  59
ENDBRANCH  11  58
ENDBRANCH   9  11
ENDBRANCH   6   7
BRANCH   6  65
ATOM     65  CB  THR A   7       0.826 -26.035 -12.303  0.00  0.00    +0.137 C 
ATOM     66  CG2 THR A   7       0.263 -26.879 -11.168  0.00  0.00    +0.034 C 
BRANCH  65  67
ATOM     67  OG1 THR A   7      -0.236 -25.702 -13.206  0.00  0.00    -0.382 OA
ATOM     68  HG1 THR A   7       0.128 -25.176 -13.962  0.00  0.00    +0.210 HD
ENDBRANCH  65  67
ENDBRANCH   6  65
ENDBRANCH   4   6
ENDBRANCH   1   2
BRANCH   1  71
ATOM     69  C   ARG A   5       5.365 -23.935 -13.743  0.00  0.00    +0.241 C 
ATOM     70  O   ARG A   5       5.743 -23.590 -12.624  0.00  0.00    -0.273 OA
ATOM     71  N   ILE A   6       4.346 -23.359 -14.366  0.00  0.00    -0.297 N 
ATOM     72  H   ILE A   6       4.065 -23.692 -15.311  0.00  0.00    +0.150 HD
BRANCH  69  73
ATOM     73  CA  ARG A   5       6.061 -25.066 -14.487  0.00  0.00    +0.149 C 
BRANCH  73  76
ATOM     74  C   GLU A   4       4.118 -26.462 -14.857  0.00  0.00    +0.241 C 
ATOM     75  O   GLU A   4       3.878 -26.519 -13.652  0.00  0.00    -0.273 OA
ATOM     76  N   ARG A   5       5.138 -25.775 -15.359  0.00  0.00    -0.297 N 
ATOM     77  H   ARG A   5       5.278 -25.744 -16.389  0.00  0.00    +0.150 HD
BRANCH  74  78
ATOM     78  CA  GLU A   4       3.223 -27.179 -15.853  0.00  0.00    +0.149 C 
BRANCH  78  81
ATOM     79  C   TRP A   3       1.668 -25.460 -16.513  0.00  0.00    +0.241 C 
ATOM     80  O   TRP A   3       1.162 -25.458 -15.392  0.00  0.00    -0.273 OA
ATOM     81  N   GLU A   4       2.676 -26.262 -16.837  0.00  0.00    -0.297 N 
ATOM     82  H   GLU A   4       3.074 -26.233 -17.797  0.00  0.00    +0.150 HD
BRANCH  79  83
ATOM     83  CA  TRP A   3       1.146 -24.527 -17.601  0.00  0.00    +0.153 C 
BRANCH  83  86
ATOM     84  C   TYR A   2       3.184 -23.557 -18.522  0.00  0.00    +0.241 C 
ATOM     85  O   TYR A   2       3.492 -23.037 -17.446  0.00  0.00    -0.273 OA
ATOM     86  N   TRP A   3       2.089 -24.293 -18.686  0.00  0.00    -0.297 N 
ATOM     87  H   TRP A   3       1.900 -24.715 -19.618  0.00  0.00    +0.150 HD
BRANCH  84  88
ATOM     88  CA  TYR A   2       4.068 -23.389 -19.759  0.00  0.00    +0.153 C 
BRANCH  88  91
ATOM     89  C   GLU A   1       5.003 -25.640 -19.665  0.00  0.00    +0.238 C 
ATOM     90  O   GLU A   1       5.408 -25.483 -18.513  0.00  0.00    -0.274 OA
ATOM     91  N   TYR A   2       4.363 -24.693 -20.347  0.00  0.00    -0.297 N 
ATOM     92  H   TYR A   2       4.065 -24.887 -21.324  0.00  0.00    +0.150 HD
BRANCH  89  93
ATOM     93  CA  GLU A   1       5.230 -26.958 -20.397  0.00  0.00    +0.145 C 
BRANCH  93  94
ATOM     94  N   GLU A   1       4.185 -27.162 -21.399  0.00  0.00    -0.238 NA
ATOM     95  H   GLU A   1       4.435 -27.122 -22.408  0.00  0.00    +0.142 HD
ENDBRANCH  93  94
BRANCH  93  96
ATOM     96  CB  GLU A   1       6.612 -26.944 -21.059  0.00  0.00    +0.038 C 
BRANCH  96  97
ATOM     97  CG  GLU A   1       7.670 -27.810 -20.363  0.00  0.00    +0.116 C 
BRANCH  97  98
ATOM     98  CD  GLU A   1       7.829 -27.498 -18.877  0.00  0.00    +0.365 C 
ATOM     99  OE2 GLU A   1       6.910 -27.824 -18.094  0.00  0.00    -0.246 OA
ATOM    100  OE1 GLU A   1       8.874 -26.923 -18.493  0.00  0.00    -0.246 OA
ENDBRANCH  97  98
ENDBRANCH  96  97
ENDBRANCH  93  96
ENDBRANCH  89  93
ENDBRANCH  88  91
BRANCH  88 101
ATOM    101  CB  TYR A   2       3.350 -22.497 -20.779  0.00  0.00    +0.055 C 
BRANCH 101 102
ATOM    102  CG  TYR A   2       2.751 -21.239 -20.183  0.00  0.00    -0.020 A 
ATOM    103  CD2 TYR A   2       1.424 -21.217 -19.745  0.00  0.00    -0.001 A 
ATOM    104  CE2 TYR A   2       0.869 -20.074 -19.176  0.00  0.00    +0.036 A 
ATOM    105  CZ  TYR A   2       1.643 -18.935 -19.041  0.00  0.00    +0.134 A 
ATOM    106  CE1 TYR A   2       2.964 -18.932 -19.471  0.00  0.00    +0.036 A 
ATOM    107  CD1 TYR A   2       3.509 -20.081 -20.037  0.00  0.00    -0.001 A 
BRANCH 105 108
ATOM    108  OH  TYR A   2       1.107 -17.802 -18.468  0.00  0.00    -0.506 OA
ATOM    109  HH  TYR A   2       1.792 -17.087 -18.450  0.00  0.00    +0.292 HD
ENDBRANCH 105 108
ENDBRANCH 101 102
ENDBRANCH  88 101
ENDBRANCH  84  88
ENDBRANCH  83  86
BRANCH  83 110
ATOM    110  CB  TRP A   3      -0.167 -25.085 -18.155  0.00  0.00    +0.057 C 
BRANCH 110 111
ATOM    111  CG  TRP A   3      -0.803 -24.177 -19.144  0.00  0.00    -0.002 A 
ATOM    112  CD2 TRP A   3      -1.535 -22.981 -18.857  0.00  0.00    +0.013 A 
ATOM    113  CE3 TRP A   3      -1.913 -22.335 -17.674  0.00  0.00    +0.001 A 
ATOM    114  CZ3 TRP A   3      -2.640 -21.150 -17.761  0.00  0.00    +0.000 A 
ATOM    115  CH2 TRP A   3      -2.993 -20.606 -19.009  0.00  0.00    +0.001 A 
ATOM    116  CZ2 TRP A   3      -2.634 -21.221 -20.184  0.00  0.00    +0.017 A 
ATOM    117  CE2 TRP A   3      -1.904 -22.410 -20.094  0.00  0.00    +0.056 A 
ATOM    118  NE1 TRP A   3      -1.418 -23.226 -21.082  0.00  0.00    -0.352 N 
ATOM    119  HE1 TRP A   3      -1.530 -23.070 -22.104  0.00  0.00    +0.166 HD
ATOM    120  CD1 TRP A   3      -0.760 -24.283 -20.504  0.00  0.00    +0.068 A 
ENDBRANCH 110 111
ENDBRANCH  83 110
ENDBRANCH  79  83
ENDBRANCH  78  81
BRANCH  78 121
ATOM    121  CB  GLU A   4       4.006 -28.302 -16.533  0.00  0.00    +0.041 C 
BRANCH 121 122
ATOM    122  CG  GLU A   4       3.385 -29.671 -16.312  0.00  0.00    +0.116 C 
BRANCH 122 123
ATOM    123  CD  GLU A   4       3.215 -30.002 -14.838  0.00  0.00    +0.365 C 
ATOM    124  OE2 GLU A   4       4.242 -30.121 -14.129  0.00  0.00    -0.246 OA
ATOM    125  OE1 GLU A   4       2.056 -30.137 -14.384  0.00  0.00    -0.246 OA
ENDBRANCH 122 123
ENDBRANCH 121 122
ENDBRANCH  78 121
ENDBRANCH  74  78
ENDBRANCH  73  76
BRANCH  73 126
ATOM    126  CB  ARG A   5       7.240 -24.501 -15.287  0.00  0.00    +0.033 C 
BRANCH 126 127
ATOM    127  CG  ARG A   5       6.915 -23.311 -16.161  0.00  0.00    +0.045 C 
BRANCH 127 128
ATOM    128  CD  ARG A   5       8.193 -22.585 -16.547  0.00  0.00    +0.174 C 
BRANCH 128 129
ATOM    129  NE  ARG A   5       7.950 -21.444 -17.426  0.00  0.00    -0.265 N 
ATOM    130  HE  ARG A   5       8.133 -20.493 -17.048  0.00  0.00    +0.259 HD
ATOM    131  CZ  ARG A   5       7.510 -21.540 -18.678  0.00  0.00    +0.342 C 
ATOM    132  NH2 ARG A   5       7.262 -22.731 -19.206  0.00  0.00    -0.292 N 
ATOM    133 HH21 ARG A   5       7.411 -23.591 -18.641  0.00  0.00    +0.255 HD
ATOM    134 HH22 ARG A   5       6.918 -22.805 -20.185  0.00  0.00    +0.255 HD
ATOM    135  NH1 ARG A   5       7.320 -20.443 -19.405  0.00  0.00    -0.292 N 
ATOM    136 HH11 ARG A   5       7.515 -19.507 -18.995  0.00  0.00    +0.255 HD
ATOM    137 HH12 ARG A   5       6.976 -20.521 -20.383  0.00  0.00    +0.255 HD
ENDBRANCH 128 129
ENDBRANCH 127 128
ENDBRANCH 126 127
ENDBRANCH  73 126
ENDBRANCH  69  73
ENDBRANCH   1  71
BRANCH   1 138
ATOM    138  CB  ILE A   6       2.735 -21.538 -14.786  0.00  0.00    +0.027 C 
ATOM    139  CG2 ILE A   6       1.442 -22.296 -15.014  0.00  0.00    +0.002 C 
BRANCH 138 140
ATOM    140  CG1 ILE A   6       2.457 -20.107 -14.325  0.00  0.00    +0.002 C 
ATOM    141  CD1 ILE A   6       3.685 -19.221 -14.309  0.00  0.00    +0.000 C 
ENDBRANCH 138 140
ENDBRANCH   1 138
TORSDOF 57
REMARK  Name = ../refined-set-2016/3ery/3ery_pocket.pdb
REMARK  346 active torsions:
REMARK  status: ('A' for Active; 'I' for Inactive)
REMARK    1  A    between atoms: _1  and  _3
REMARK    2  A    between atoms: _3  and  _4
REMARK    3  A    between atoms: _3  and  _6
REMARK    4  A    between atoms: _6  and  _7
REMARK    5  A    between atoms: _7  and  _8
REMARK    6  A    between atoms: _10  and  _12
REMARK    7  A    between atoms: _12  and  _13
REMARK    8  A    between atoms: _12  and  _15
REMARK    9  A    between atoms: _15  and  _16
REMARK   10  A    between atoms: _16  and  _17
REMARK   11  A    between atoms: _17  and  _18
REMARK   12  A    between atoms: _27  and  _29
REMARK   13  A    between atoms: _29  and  _30
REMARK   14  A    between atoms: _29  and  _32
REMARK   15  A    between atoms: _32  and  _33
REMARK   16  A    between atoms: _38  and  _39
REMARK   17  A    between atoms: _41  and  _43
REMARK   18  A    between atoms: _43  and  _44
REMARK   19  A    between atoms: _43  and  _46
REMARK   20  A    between atoms: _46  and  _47
REMARK   21  A    between atoms: _52  and  _53
REMARK   22  A    between atoms: _55  and  _57
REMARK   23  A    between atoms: _57  and  _58
REMARK   24  A    between atoms: _57  and  _60
REMARK   25  A    between atoms: _60  and  _61
REMARK   26  A    between atoms: _61  and  _62
REMARK   27  A    between atoms: _65  and  _67
REMARK   28  A    between atoms: _67  and  _68
REMARK   29  A    between atoms: _67  and  _70
REMARK   30  A    between atoms: _70  and  _71
REMARK   31  A    between atoms: _76  and  _77
REMARK   32  A    between atoms: _79  and  _81
REMARK   33  A    between atoms: _81  and  _82
REMARK   34  A    between atoms: _81  and  _84
REMARK   35  A    between atoms: _84  and  _85
REMARK   36  A    between atoms: _87  and  _89
REMARK   37  A    between atoms: _89  and  _90
REMARK   38  A    between atoms: _89  and  _92
REMARK   39  A    between atoms: _95  and  _97
REMARK   40  A    between atoms: _97  and  _98
REMARK   41  A    between atoms: _100  and  _102
REMARK   42  A    between atoms: _102  and  _103
REMARK   43  A    between atoms: _102  and  _105
REMARK   44  A    between atoms: _105  and  _106
REMARK   45  A    between atoms: _112  and  _114
REMARK   46  A    between atoms: _114  and  _115
REMARK   47  A    between atoms: _114  and  _117
REMARK   48  A    between atoms: _120  and  _122
REMARK   49  A    between atoms: _122  and  _123
REMARK   50  A    between atoms: _122  and  _125
REMARK   51  A    between atoms: _125  and  _126
REMARK   52  A    between atoms: _132  and  _134
REMARK   53  A    between atoms: _134  and  _135
REMARK   54  A    between atoms: _134  and  _137
REMARK   55  A    between atoms: _137  and  _138
REMARK   56  A    between atoms: _143  and  _144
REMARK   57  A    between atoms: _146  and  _148
REMARK   58  A    between atoms: _148  and  _149
REMARK   59  A    between atoms: _148  and  _151
REMARK   60  A    between atoms: _151  and  _152
REMARK   61  A    between atoms: _152  and  _153
REMARK   62  A    between atoms: _156  and  _158
REMARK   63  A    between atoms: _158  and  _159
REMARK   64  A    between atoms: _158  and  _161
REMARK   65  A    between atoms: _161  and  _162
REMARK   66  A    between atoms: _162  and  _163
REMARK   67  A    between atoms: _166  and  _168
REMARK   68  A    between atoms: _168  and  _169
REMARK   69  A    between atoms: _168  and  _171
REMARK   70  A    between atoms: _171  and  _172
REMARK   71  A    between atoms: _177  and  _178
REMARK   72  A    between atoms: _180  and  _182
REMARK   73  A    between atoms: _182  and  _183
REMARK   74  A    between atoms: _182  and  _185
REMARK   75  A    between atoms: _185  and  _186
REMARK   76  A    between atoms: _196  and  _198
REMARK   77  A    between atoms: _198  and  _199
REMARK   78  A    between atoms: _198  and  _201
REMARK   79  A    between atoms: _201  and  _202
REMARK   80  A    between atoms: _202  and  _203
REMARK   81  A    between atoms: _206  and  _208
REMARK   82  A    between atoms: _208  and  _209
REMARK   83  A    between atoms: _208  and  _211
REMARK   84  A    between atoms: _211  and  _212
REMARK   85  A    between atoms: _212  and  _213
REMARK   86  A    between atoms: _213  and  _214
REMARK   87  A    between atoms: _223  and  _225
REMARK   88  A    between atoms: _225  and  _226
REMARK   89  A    between atoms: _225  and  _228
REMARK   90  A    between atoms: _228  and  _229
REMARK   91  A    between atoms: _232  and  _234
REMARK   92  A    between atoms: _234  and  _235
REMARK   93  A    between atoms: _234  and  _237
REMARK   94  A    between atoms: _237  and  _238
REMARK   95  A    between atoms: _241  and  _243
REMARK   96  A    between atoms: _243  and  _244
REMARK   97  A    between atoms: _243  and  _246
REMARK   98  A    between atoms: _246  and  _247
REMARK   99  A    between atoms: _247  and  _248
REMARK  100  A    between atoms: _253  and  _255
REMARK  101  A    between atoms: _255  and  _256
REMARK  102  A    between atoms: _255  and  _258
REMARK  103  A    between atoms: _261  and  _263
REMARK  104  A    between atoms: _263  and  _264
REMARK  105  A    between atoms: _267  and  _269
REMARK  106  A    between atoms: _269  and  _270
REMARK  107  A    between atoms: _269  and  _272
REMARK  108  A    between atoms: _272  and  _273
REMARK  109  A    between atoms: _273  and  _274
REMARK  110  A    between atoms: _274  and  _275
REMARK  111  A    between atoms: _275  and  _276
REMARK  112  A    between atoms: _280  and  _282
REMARK  113  A    between atoms: _282  and  _283
REMARK  114  A    between atoms: _285  and  _287
REMARK  115  A    between atoms: _287  and  _288
REMARK  116  A    between atoms: _287  and  _290
REMARK  117  A    between atoms: _290  and  _291
REMARK  118  A    between atoms: _291  and  _292
REMARK  119  A    between atoms: _297  and  _299
REMARK  120  A    between atoms: _299  and  _300
REMARK  121  A    between atoms: _299  and  _302
REMARK  122  A    between atoms: _302  and  _303
REMARK  123  A    between atoms: _303  and  _304
REMARK  124  A    between atoms: _309  and  _311
REMARK  125  A    between atoms: _311  and  _312
REMARK  126  A    between atoms: _311  and  _314
REMARK  127  A    between atoms: _314  and  _315
REMARK  128  A    between atoms: _325  and  _327
REMARK  129  A    between atoms: _327  and  _328
REMARK  130  A    between atoms: _327  and  _330
REMARK  131  A    between atoms: _330  and  _331
REMARK  132  A    between atoms: _337  and  _339
REMARK  133  A    between atoms: _339  and  _340
REMARK  134  A    between atoms: _339  and  _342
REMARK  135  A    between atoms: _345  and  _347
REMARK  136  A    between atoms: _347  and  _348
REMARK  137  A    between atoms: _347  and  _350
REMARK  138  A    between atoms: _350  and  _351
REMARK  139  A    between atoms: _356  and  _358
REMARK  140  A    between atoms: _358  and  _359
REMARK  141  A    between atoms: _358  and  _361
REMARK  142  A    between atoms: _361  and  _362
REMARK  143  A    between atoms: _365  and  _367
REMARK  144  A    between atoms: _367  and  _368
REMARK  145  A    between atoms: _367  and  _370
REMARK  146  A    between atoms: _370  and  _371
REMARK  147  A    between atoms: _371  and  _372
REMARK  148  A    between atoms: _372  and  _373
REMARK  149  A    between atoms: _382  and  _384
REMARK  150  A    between atoms: _384  and  _385
REMARK  151  A    between atoms: _384  and  _387
REMARK  152  A    between atoms: _387  and  _388
REMARK  153  A    between atoms: _391  and  _393
REMARK  154  A    between atoms: _393  and  _394
REMARK  155  A    between atoms: _393  and  _396
REMARK  156  A    between atoms: _396  and  _397
REMARK  157  A    between atoms: _400  and  _402
REMARK  158  A    between atoms: _402  and  _403
REMARK  159  A    between atoms: _402  and  _405
REMARK  160  A    between atoms: _405  and  _406
REMARK  161  A    between atoms: _409  and  _411
REMARK  162  A    between atoms: _411  and  _412
REMARK  163  A    between atoms: _411  and  _414
REMARK  164  A    between atoms: _414  and  _415
REMARK  165  A    between atoms: _420  and  _421
REMARK  166  A    between atoms: _423  and  _425
REMARK  167  A    between atoms: _425  and  _426
REMARK  168  A    between atoms: _425  and  _428
REMARK  169  A    between atoms: _428  and  _429
REMARK  170  A    between atoms: _432  and  _434
REMARK  171  A    between atoms: _434  and  _435
REMARK  172  A    between atoms: _434  and  _437
REMARK  173  A    between atoms: _437  and  _438
REMARK  174  A    between atoms: _438  and  _439
REMARK  175  A    between atoms: _444  and  _446
REMARK  176  A    between atoms: _446  and  _447
REMARK  177  A    between atoms: _446  and  _449
REMARK  178  A    between atoms: _449  and  _450
REMARK  179  A    between atoms: _450  and  _451
REMARK  180  A    between atoms: _451  and  _452
REMARK  181  A    between atoms: _461  and  _463
REMARK  182  A    between atoms: _463  and  _464
REMARK  183  A    between atoms: _463  and  _466
REMARK  184  A    between atoms: _466  and  _467
REMARK  185  A    between atoms: _472  and  _473
REMARK  186  A    between atoms: _475  and  _477
REMARK  187  A    between atoms: _477  and  _478
REMARK  188  A    between atoms: _480  and  _482
REMARK  189  A    between atoms: _482  and  _483
REMARK  190  A    between atoms: _482  and  _485
REMARK  191  A    between atoms: _485  and  _486
REMARK  192  A    between atoms: _491  and  _492
REMARK  193  A    between atoms: _494  and  _496
REMARK  194  A    between atoms: _496  and  _497
REMARK  195  A    between atoms: _496  and  _499
REMARK  196  A    between atoms: _499  and  _500
REMARK  197  A    between atoms: _500  and  _501
REMARK  198  A    between atoms: _504  and  _506
REMARK  199  A    between atoms: _506  and  _507
REMARK  200  A    between atoms: _506  and  _509
REMARK  201  A    between atoms: _509  and  _510
REMARK  202  A    between atoms: _516  and  _518
REMARK  203  A    between atoms: _518  and  _519
REMARK  204  A    between atoms: _522  and  _524
REMARK  205  A    between atoms: _524  and  _525
REMARK  206  A    between atoms: _524  and  _527
REMARK  207  A    between atoms: _527  and  _528
REMARK  208  A    between atoms: _533  and  _534
REMARK  209  A    between atoms: _536  and  _538
REMARK  210  A    between atoms: _538  and  _539
REMARK  211  A    between atoms: _538  and  _541
REMARK  212  A    between atoms: _541  and  _542
REMARK  213  A    between atoms: _547  and  _548
REMARK  214  A    between atoms: _550  and  _552
REMARK  215  A    between atoms: _552  and  _553
REMARK  216  A    between atoms: _552  and  _555
REMARK  217  A    between atoms: _555  and  _556
REMARK  218  A    between atoms: _559  and  _561
REMARK  219  A    between atoms: _561  and  _562
REMARK  220  A    between atoms: _561  and  _564
REMARK  221  A    between atoms: _564  and  _565
REMARK  222  A    between atoms: _575  and  _577
REMARK  223  A    between atoms: _577  and  _578
REMARK  224  A    between atoms: _581  and  _583
REMARK  225  A    between atoms: _583  and  _584
REMARK  226  A    between atoms: _587  and  _589
REMARK  227  A    between atoms: _589  and  _590
REMARK  228  A    between atoms: _589  and  _592
REMARK  229  A    between atoms: _592  and  _593
REMARK  230  A    between atoms: _593  and  _594
REMARK  231  A    between atoms: _599  and  _601
REMARK  232  A    between atoms: _601  and  _602
REMARK  233  A    between atoms: _601  and  _604
REMARK  234  A    between atoms: _604  and  _605
REMARK  235  A    between atoms: _608  and  _610
REMARK  236  A    between atoms: _610  and  _611
REMARK  237  A    between atoms: _610  and  _613
REMARK  238  A    between atoms: _613  and  _614
REMARK  239  A    between atoms: _617  and  _619
REMARK  240  A    between atoms: _619  and  _620
REMARK  241  A    between atoms: _619  and  _622
REMARK  242  A    between atoms: _622  and  _623
REMARK  243  A    between atoms: _623  and  _624
REMARK  244  A    between atoms: _624  and  _625
REMARK  245  A    between atoms: _634  and  _636
REMARK  246  A    between atoms: _636  and  _637
REMARK  247  A    between atoms: _636  and  _639
REMARK  248  A    between atoms: _639  and  _640
REMARK  249  A    between atoms: _640  and  _641
REMARK  250  A    between atoms: _641  and  _642
REMARK  251  A    between atoms: _651  and  _653
REMARK  252  A    between atoms: _653  and  _654
REMARK  253  A    between atoms: _653  and  _656
REMARK  254  A    between atoms: _656  and  _657
REMARK  255  A    between atoms: _657  and  _658
REMARK  256  A    between atoms: _658  and  _659
REMARK  257  A    between atoms: _659  and  _660
REMARK  258  A    between atoms: _664  and  _666
REMARK  259  A    between atoms: _666  and  _667
REMARK  260  A    between atoms: _666  and  _669
REMARK  261  A    between atoms: _669  and  _670
REMARK  262  A    between atoms: _680  and  _682
REMARK  263  A    between atoms: _682  and  _683
REMARK  264  A    between atoms: _682  and  _685
REMARK  265  A    between atoms: _685  and  _686
REMARK  266  A    between atoms: _686  and  _687
REMARK  267  A    between atoms: _690  and  _692
REMARK  268  A    between atoms: _692  and  _693
REMARK  269  A    between atoms: _692  and  _695
REMARK  270  A    between atoms: _695  and  _696
REMARK  271  A    between atoms: _696  and  _697
REMARK  272  A    between atoms: _702  and  _704
REMARK  273  A    between atoms: _704  and  _705
REMARK  274  A    between atoms: _708  and  _710
REMARK  275  A    between atoms: _710  and  _711
REMARK  276  A    between atoms: _713  and  _715
REMARK  277  A    between atoms: _715  and  _716
REMARK  278  A    between atoms: _719  and  _721
REMARK  279  A    between atoms: _721  and  _722
REMARK  280  A    between atoms: _725  and  _727
REMARK  281  A    between atoms: _727  and  _728
REMARK  282  A    between atoms: _727  and  _730
REMARK  283  A    between atoms: _730  and  _731
REMARK  284  A    between atoms: _731  and  _732
REMARK  285  A    between atoms: _735  and  _737
REMARK  286  A    between atoms: _737  and  _738
REMARK  287  A    between atoms: _737  and  _740
REMARK  288  A    between atoms: _740  and  _741
REMARK  289  A    between atoms: _746  and  _747
REMARK  290  A    between atoms: _749  and  _751
REMARK  291  A    between atoms: _751  and  _752
REMARK  292  A    between atoms: _751  and  _754
REMARK  293  A    between atoms: _754  and  _755
REMARK  294  A    between atoms: _760  and  _761
REMARK  295  A    between atoms: _763  and  _765
REMARK  296  A    between atoms: _765  and  _766
REMARK  297  A    between atoms: _765  and  _768
REMARK  298  A    between atoms: _768  and  _769
REMARK  299  A    between atoms: _769  and  _770
REMARK  300  A    between atoms: _770  and  _771
REMARK  301  A    between atoms: _780  and  _782
REMARK  302  A    between atoms: _782  and  _783
REMARK  303  A    between atoms: _786  and  _788
REMARK  304  A    between atoms: _788  and  _789
REMARK  305  A    between atoms: _788  and  _791
REMARK  306  A    between atoms: _791  and  _792
REMARK  307  A    between atoms: _797  and  _798
REMARK  308  A    between atoms: _800  and  _802
REMARK  309  A    between atoms: _802  and  _803
REMARK  310  A    between atoms: _802  and  _805
REMARK  311  A    between atoms: _805  and  _806
REMARK  312  A    between atoms: _809  and  _811
REMARK  313  A    between atoms: _811  and  _812
REMARK  314  A    between atoms: _811  and  _814
REMARK  315  A    between atoms: _814  and  _815
REMARK  316  A    between atoms: _815  and  _816
REMARK  317  A    between atoms: _819  and  _821
REMARK  318  A    between atoms: _821  and  _822
REMARK  319  A    between atoms: _821  and  _824
REMARK  320  A    between atoms: _826  and  _828
REMARK  321  A    between atoms: _828  and  _829
REMARK  322  A    between atoms: _828  and  _831
REMARK  323  A    between atoms: _834  and  _836
REMARK  324  A    between atoms: _836  and  _837
REMARK  325  A    between atoms: _836  and  _839
REMARK  326  A    between atoms: _839  and  _840
REMARK  327  A    between atoms: _840  and  _841
REMARK  328  A    between atoms: _844  and  _846
REMARK  329  A    between atoms: _846  and  _847
REMARK  330  A    between atoms: _846  and  _849
REMARK  331  A    between atoms: _849  and  _850
REMARK  332  A    between atoms: _860  and  _862
REMARK  333  A    between atoms: _862  and  _863
REMARK  334  A    between atoms: _862  and  _865
REMARK  335  A    between atoms: _865  and  _866
REMARK  336  A    between atoms: _869  and  _871
REMARK  337  A    between atoms: _871  and  _872
REMARK  338  A    between atoms: _871  and  _874
REMARK  339  A    between atoms: _874  and  _875
REMARK  340  A    between atoms: _875  and  _876
REMARK  341  A    between atoms: _876  and  _877
REMARK  342  A    between atoms: _886  and  _888
REMARK  343  A    between atoms: _888  and  _889
REMARK  344  A    between atoms: _888  and  _891
REMARK  345  A    between atoms: _891  and  _892
REMARK  346  A    between atoms: _897  and  _898
REMARK                            x       y       z     vdW  Elec       q    Type
REMARK                         _______ _______ _______ _____ _____    ______ ____
ROOT
ATOM      1  CA  TRP A   2       4.769 -20.058   1.246  0.00  0.00    +0.153 C 
ENDROOT
BRANCH   1   4
ATOM      2  C   GLN A   1       4.015 -22.348   1.504  0.00  0.00    +0.238 C 
ATOM      3  O   GLN A   1       4.117 -22.300   2.728  0.00  0.00    -0.274 OA
ATOM      4  N   TRP A   2       4.311 -21.327   0.710  0.00  0.00    -0.297 N 
ATOM      5  H   TRP A   2       4.213 -21.438  -0.319  0.00  0.00    +0.150 HD
BRANCH   2   6
ATOM      6  CA  GLN A   1       3.537 -23.613   0.811  0.00  0.00    +0.145 C 
BRANCH   6   7
ATOM      7  N   GLN A   1       2.759 -23.286  -0.378  0.00  0.00    -0.238 NA
ATOM      8  H   GLN A   1       3.116 -23.553  -1.318  0.00  0.00    +0.142 HD
ENDBRANCH   6   7
BRANCH   6   9
ATOM      9  CB  GLN A   1       4.746 -24.482   0.453  0.00  0.00    +0.036 C 
BRANCH   9  10
ATOM     10  CG  GLN A   1       4.570 -25.944   0.817  0.00  0.00    +0.087 C 
BRANCH  10  11
ATOM     11  CD  GLN A   1       4.399 -26.153   2.314  0.00  0.00    +0.219 C 
ATOM     12  OE1 GLN A   1       5.267 -25.785   3.112  0.00  0.00    -0.275 OA
ATOM     13  NE2 GLN A   1       3.275 -26.749   2.702  0.00  0.00    -0.329 N 
ATOM     14 HE21 GLN A   1       3.100 -26.922   3.713  0.00  0.00    +0.145 HD
ATOM     15 HE22 GLN A   1       2.571 -27.042   1.995  0.00  0.00    +0.145 HD
ENDBRANCH  10  11
ENDBRANCH   9  10
ENDBRANCH   6   9
ENDBRANCH   2   6
ENDBRANCH   1   4
BRANCH   1  16
ATOM     16  C   TRP A   2       3.667 -19.466   2.124  0.00  0.00    +0.241 C 
ATOM     17  O   TRP A   2       3.928 -18.958   3.217  0.00  0.00    -0.273 OA
ATOM     18  N   PHE A   3       2.433 -19.531   1.632  0.00  0.00    -0.298 N 
ATOM     19  H   PHE A   3       2.276 -19.974   0.704  0.00  0.00    +0.150 HD
BRANCH  18  20
ATOM     20  CA  PHE A   3       1.296 -18.993   2.368  0.00  0.00    +0.141 C 
BRANCH  20  21
ATOM     21  C   PHE A   3       1.025 -19.822   3.616  0.00  0.00    +0.227 C 
ATOM     22  O   PHE A   3       0.570 -19.290   4.631  0.00  0.00    -0.286 OA
ENDBRANCH  20  21
BRANCH  20  23
ATOM     23  CB  PHE A   3       0.052 -18.936   1.467  0.00  0.00    +0.054 C 
BRANCH  23  24
ATOM     24  CG  PHE A   3      -0.033 -17.683   0.629  0.00  0.00    -0.020 A 
ATOM     25  CD2 PHE A   3      -0.440 -16.476   1.197  0.00  0.00    -0.004 A 
ATOM     26  CE2 PHE A   3      -0.499 -15.307   0.435  0.00  0.00    -0.000 A 
ATOM     27  CZ  PHE A   3      -0.148 -15.336  -0.908  0.00  0.00    -0.000 A 
ATOM     28  CE1 PHE A   3       0.260 -16.538  -1.487  0.00  0.00    -0.000 A 
ATOM     29  CD1 PHE A   3       0.313 -17.703  -0.717  0.00  0.00    -0.004 A 
ENDBRANCH  23  24
ENDBRANCH  20  23
ENDBRANCH  18  20
ENDBRANCH   1  16
BRANCH   1  30
ATOM     30  CB  TRP A   2       5.116 -19.091   0.106  0.00  0.00    +0.057 C 
BRANCH  30  31
ATOM     31  CG  TRP A   2       4.633 -17.708   0.385  0.00  0.00    -0.002 A 
ATOM     32  CD2 TRP A   2       5.358 -16.673   1.039  0.00  0.00    +0.013 A 
ATOM     33  CE3 TRP A   2       6.679 -16.540   1.465  0.00  0.00    +0.001 A 
ATOM     34  CZ3 TRP A   2       7.054 -15.374   2.091  0.00  0.00    +0.000 A 
ATOM     35  CH2 TRP A   2       6.136 -14.322   2.297  0.00  0.00    +0.001 A 
ATOM     36  CZ2 TRP A   2       4.840 -14.421   1.890  0.00  0.00    +0.017 A 
ATOM     37  CE2 TRP A   2       4.459 -15.605   1.257  0.00  0.00    +0.056 A 
ATOM     38  NE1 TRP A   2       3.244 -15.981   0.751  0.00  0.00    -0.352 N 
ATOM     39  HE1 TRP A   2       2.376 -15.408   0.765  0.00  0.00    +0.166 HD
ATOM     40  CD1 TRP A   2       3.363 -17.240   0.223  0.00  0.00    +0.068 A 
ENDBRANCH  30  31
ENDBRANCH   1  30
TORSDOF 13
REMARK  Name = ../refined-set-2016/3ery/3ery_pocket.pdb
REMARK  346 active torsions:
REMARK  status: ('A' for Active; 'I' for Inactive)
REMARK    1  A    between atoms: _1  and  _3
REMARK    2  A    between atoms: _3  and  _4
REMARK    3  A    between atoms: _3  and  _6
REMARK    4  A    between atoms: _6  and  _7
REMARK    5  A    between atoms: _7  and  _8
REMARK    6  A    between atoms: _10  and  _12
REMARK    7  A    between atoms: _12  and  _13
REMARK    8  A    between atoms: _12  and  _15
REMARK    9  A    between atoms: _15  and  _16
REMARK   10  A    between atoms: _16  and  _17
REMARK   11  A    between atoms: _17  and  _18
REMARK   12  A    between atoms: _27  and  _29
REMARK   13  A    between atoms: _29  and  _30
REMARK   14  A    between atoms: _29  and  _32
REMARK   15  A    between atoms: _32  and  _33
REMARK   16  A    between atoms: _38  and  _39
REMARK   17  A    between atoms: _41  and  _43
REMARK   18  A    between atoms: _43  and  _44
REMARK   19  A    between atoms: _43  and  _46
REMARK   20  A    between atoms: _46  and  _47
REMARK   21  A    between atoms: _52  and  _53
REMARK   22  A    between atoms: _55  and  _57
REMARK   23  A    between atoms: _57  and  _58
REMARK   24  A    between atoms: _57  and  _60
REMARK   25  A    between atoms: _60  and  _61
REMARK   26  A    between atoms: _61  and  _62
REMARK   27  A    between atoms: _65  and  _67
REMARK   28  A    between atoms: _67  and  _68
REMARK   29  A    between atoms: _67  and  _70
REMARK   30  A    between atoms: _70  and  _71
REMARK   31  A    between atoms: _76  and  _77
REMARK   32  A    between atoms: _79  and  _81
REMARK   33  A    between atoms: _81  and  _82
REMARK   34  A    between atoms: _81  and  _84
REMARK   35  A    between atoms: _84  and  _85
REMARK   36  A    between atoms: _87  and  _89
REMARK   37  A    between atoms: _89  and  _90
REMARK   38  A    between atoms: _89  and  _92
REMARK   39  A    between atoms: _95  and  _97
REMARK   40  A    between atoms: _97  and  _98
REMARK   41  A    between atoms: _100  and  _102
REMARK   42  A    between atoms: _102  and  _103
REMARK   43  A    between atoms: _102  and  _105
REMARK   44  A    between atoms: _105  and  _106
REMARK   45  A    between atoms: _112  and  _114
REMARK   46  A    between atoms: _114  and  _115
REMARK   47  A    between atoms: _114  and  _117
REMARK   48  A    between atoms: _120  and  _122
REMARK   49  A    between atoms: _122  and  _123
REMARK   50  A    between atoms: _122  and  _125
REMARK   51  A    between atoms: _125  and  _126
REMARK   52  A    between atoms: _132  and  _134
REMARK   53  A    between atoms: _134  and  _135
REMARK   54  A    between atoms: _134  and  _137
REMARK   55  A    between atoms: _137  and  _138
REMARK   56  A    between atoms: _143  and  _144
REMARK   57  A    between atoms: _146  and  _148
REMARK   58  A    between atoms: _148  and  _149
REMARK   59  A    between atoms: _148  and  _151
REMARK   60  A    between atoms: _151  and  _152
REMARK   61  A    between atoms: _152  and  _153
REMARK   62  A    between atoms: _156  and  _158
REMARK   63  A    between atoms: _158  and  _159
REMARK   64  A    between atoms: _158  and  _161
REMARK   65  A    between atoms: _161  and  _162
REMARK   66  A    between atoms: _162  and  _163
REMARK   67  A    between atoms: _166  and  _168
REMARK   68  A    between atoms: _168  and  _169
REMARK   69  A    between atoms: _168  and  _171
REMARK   70  A    between atoms: _171  and  _172
REMARK   71  A    between atoms: _177  and  _178
REMARK   72  A    between atoms: _180  and  _182
REMARK   73  A    between atoms: _182  and  _183
REMARK   74  A    between atoms: _182  and  _185
REMARK   75  A    between atoms: _185  and  _186
REMARK   76  A    between atoms: _196  and  _198
REMARK   77  A    between atoms: _198  and  _199
REMARK   78  A    between atoms: _198  and  _201
REMARK   79  A    between atoms: _201  and  _202
REMARK   80  A    between atoms: _202  and  _203
REMARK   81  A    between atoms: _206  and  _208
REMARK   82  A    between atoms: _208  and  _209
REMARK   83  A    between atoms: _208  and  _211
REMARK   84  A    between atoms: _211  and  _212
REMARK   85  A    between atoms: _212  and  _213
REMARK   86  A    between atoms: _213  and  _214
REMARK   87  A    between atoms: _223  and  _225
REMARK   88  A    between atoms: _225  and  _226
REMARK   89  A    between atoms: _225  and  _228
REMARK   90  A    between atoms: _228  and  _229
REMARK   91  A    between atoms: _232  and  _234
REMARK   92  A    between atoms: _234  and  _235
REMARK   93  A    between atoms: _234  and  _237
REMARK   94  A    between atoms: _237  and  _238
REMARK   95  A    between atoms: _241  and  _243
REMARK   96  A    between atoms: _243  and  _244
REMARK   97  A    between atoms: _243  and  _246
REMARK   98  A    between atoms: _246  and  _247
REMARK   99  A    between atoms: _247  and  _248
REMARK  100  A    between atoms: _253  and  _255
REMARK  101  A    between atoms: _255  and  _256
REMARK  102  A    between atoms: _255  and  _258
REMARK  103  A    between atoms: _261  and  _263
REMARK  104  A    between atoms: _263  and  _264
REMARK  105  A    between atoms: _267  and  _269
REMARK  106  A    between atoms: _269  and  _270
REMARK  107  A    between atoms: _269  and  _272
REMARK  108  A    between atoms: _272  and  _273
REMARK  109  A    between atoms: _273  and  _274
REMARK  110  A    between atoms: _274  and  _275
REMARK  111  A    between atoms: _275  and  _276
REMARK  112  A    between atoms: _280  and  _282
REMARK  113  A    between atoms: _282  and  _283
REMARK  114  A    between atoms: _285  and  _287
REMARK  115  A    between atoms: _287  and  _288
REMARK  116  A    between atoms: _287  and  _290
REMARK  117  A    between atoms: _290  and  _291
REMARK  118  A    between atoms: _291  and  _292
REMARK  119  A    between atoms: _297  and  _299
REMARK  120  A    between atoms: _299  and  _300
REMARK  121  A    between atoms: _299  and  _302
REMARK  122  A    between atoms: _302  and  _303
REMARK  123  A    between atoms: _303  and  _304
REMARK  124  A    between atoms: _309  and  _311
REMARK  125  A    between atoms: _311  and  _312
REMARK  126  A    between atoms: _311  and  _314
REMARK  127  A    between atoms: _314  and  _315
REMARK  128  A    between atoms: _325  and  _327
REMARK  129  A    between atoms: _327  and  _328
REMARK  130  A    between atoms: _327  and  _330
REMARK  131  A    between atoms: _330  and  _331
REMARK  132  A    between atoms: _337  and  _339
REMARK  133  A    between atoms: _339  and  _340
REMARK  134  A    between atoms: _339  and  _342
REMARK  135  A    between atoms: _345  and  _347
REMARK  136  A    between atoms: _347  and  _348
REMARK  137  A    between atoms: _347  and  _350
REMARK  138  A    between atoms: _350  and  _351
REMARK  139  A    between atoms: _356  and  _358
REMARK  140  A    between atoms: _358  and  _359
REMARK  141  A    between atoms: _358  and  _361
REMARK  142  A    between atoms: _361  and  _362
REMARK  143  A    between atoms: _365  and  _367
REMARK  144  A    between atoms: _367  and  _368
REMARK  145  A    between atoms: _367  and  _370
REMARK  146  A    between atoms: _370  and  _371
REMARK  147  A    between atoms: _371  and  _372
REMARK  148  A    between atoms: _372  and  _373
REMARK  149  A    between atoms: _382  and  _384
REMARK  150  A    between atoms: _384  and  _385
REMARK  151  A    between atoms: _384  and  _387
REMARK  152  A    between atoms: _387  and  _388
REMARK  153  A    between atoms: _391  and  _393
REMARK  154  A    between atoms: _393  and  _394
REMARK  155  A    between atoms: _393  and  _396
REMARK  156  A    between atoms: _396  and  _397
REMARK  157  A    between atoms: _400  and  _402
REMARK  158  A    between atoms: _402  and  _403
REMARK  159  A    between atoms: _402  and  _405
REMARK  160  A    between atoms: _405  and  _406
REMARK  161  A    between atoms: _409  and  _411
REMARK  162  A    between atoms: _411  and  _412
REMARK  163  A    between atoms: _411  and  _414
REMARK  164  A    between atoms: _414  and  _415
REMARK  165  A    between atoms: _420  and  _421
REMARK  166  A    between atoms: _423  and  _425
REMARK  167  A    between atoms: _425  and  _426
REMARK  168  A    between atoms: _425  and  _428
REMARK  169  A    between atoms: _428  and  _429
REMARK  170  A    between atoms: _432  and  _434
REMARK  171  A    between atoms: _434  and  _435
REMARK  172  A    between atoms: _434  and  _437
REMARK  173  A    between atoms: _437  and  _438
REMARK  174  A    between atoms: _438  and  _439
REMARK  175  A    between atoms: _444  and  _446
REMARK  176  A    between atoms: _446  and  _447
REMARK  177  A    between atoms: _446  and  _449
REMARK  178  A    between atoms: _449  and  _450
REMARK  179  A    between atoms: _450  and  _451
REMARK  180  A    between atoms: _451  and  _452
REMARK  181  A    between atoms: _461  and  _463
REMARK  182  A    between atoms: _463  and  _464
REMARK  183  A    between atoms: _463  and  _466
REMARK  184  A    between atoms: _466  and  _467
REMARK  185  A    between atoms: _472  and  _473
REMARK  186  A    between atoms: _475  and  _477
REMARK  187  A    between atoms: _477  and  _478
REMARK  188  A    between atoms: _480  and  _482
REMARK  189  A    between atoms: _482  and  _483
REMARK  190  A    between atoms: _482  and  _485
REMARK  191  A    between atoms: _485  and  _486
REMARK  192  A    between atoms: _491  and  _492
REMARK  193  A    between atoms: _494  and  _496
REMARK  194  A    between atoms: _496  and  _497
REMARK  195  A    between atoms: _496  and  _499
REMARK  196  A    between atoms: _499  and  _500
REMARK  197  A    between atoms: _500  and  _501
REMARK  198  A    between atoms: _504  and  _506
REMARK  199  A    between atoms: _506  and  _507
REMARK  200  A    between atoms: _506  and  _509
REMARK  201  A    between atoms: _509  and  _510
REMARK  202  A    between atoms: _516  and  _518
REMARK  203  A    between atoms: _518  and  _519
REMARK  204  A    between atoms: _522  and  _524
REMARK  205  A    between atoms: _524  and  _525
REMARK  206  A    between atoms: _524  and  _527
REMARK  207  A    between atoms: _527  and  _528
REMARK  208  A    between atoms: _533  and  _534
REMARK  209  A    between atoms: _536  and  _538
REMARK  210  A    between atoms: _538  and  _539
REMARK  211  A    between atoms: _538  and  _541
REMARK  212  A    between atoms: _541  and  _542
REMARK  213  A    between atoms: _547  and  _548
REMARK  214  A    between atoms: _550  and  _552
REMARK  215  A    between atoms: _552  and  _553
REMARK  216  A    between atoms: _552  and  _555
REMARK  217  A    between atoms: _555  and  _556
REMARK  218  A    between atoms: _559  and  _561
REMARK  219  A    between atoms: _561  and  _562
REMARK  220  A    between atoms: _561  and  _564
REMARK  221  A    between atoms: _564  and  _565
REMARK  222  A    between atoms: _575  and  _577
REMARK  223  A    between atoms: _577  and  _578
REMARK  224  A    between atoms: _581  and  _583
REMARK  225  A    between atoms: _583  and  _584
REMARK  226  A    between atoms: _587  and  _589
REMARK  227  A    between atoms: _589  and  _590
REMARK  228  A    between atoms: _589  and  _592
REMARK  229  A    between atoms: _592  and  _593
REMARK  230  A    between atoms: _593  and  _594
REMARK  231  A    between atoms: _599  and  _601
REMARK  232  A    between atoms: _601  and  _602
REMARK  233  A    between atoms: _601  and  _604
REMARK  234  A    between atoms: _604  and  _605
REMARK  235  A    between atoms: _608  and  _610
REMARK  236  A    between atoms: _610  and  _611
REMARK  237  A    between atoms: _610  and  _613
REMARK  238  A    between atoms: _613  and  _614
REMARK  239  A    between atoms: _617  and  _619
REMARK  240  A    between atoms: _619  and  _620
REMARK  241  A    between atoms: _619  and  _622
REMARK  242  A    between atoms: _622  and  _623
REMARK  243  A    between atoms: _623  and  _624
REMARK  244  A    between atoms: _624  and  _625
REMARK  245  A    between atoms: _634  and  _636
REMARK  246  A    between atoms: _636  and  _637
REMARK  247  A    between atoms: _636  and  _639
REMARK  248  A    between atoms: _639  and  _640
REMARK  249  A    between atoms: _640  and  _641
REMARK  250  A    between atoms: _641  and  _642
REMARK  251  A    between atoms: _651  and  _653
REMARK  252  A    between atoms: _653  and  _654
REMARK  253  A    between atoms: _653  and  _656
REMARK  254  A    between atoms: _656  and  _657
REMARK  255  A    between atoms: _657  and  _658
REMARK  256  A    between atoms: _658  and  _659
REMARK  257  A    between atoms: _659  and  _660
REMARK  258  A    between atoms: _664  and  _666
REMARK  259  A    between atoms: _666  and  _667
REMARK  260  A    between atoms: _666  and  _669
REMARK  261  A    between atoms: _669  and  _670
REMARK  262  A    between atoms: _680  and  _682
REMARK  263  A    between atoms: _682  and  _683
REMARK  264  A    between atoms: _682  and  _685
REMARK  265  A    between atoms: _685  and  _686
REMARK  266  A    between atoms: _686  and  _687
REMARK  267  A    between atoms: _690  and  _692
REMARK  268  A    between atoms: _692  and  _693
REMARK  269  A    between atoms: _692  and  _695
REMARK  270  A    between atoms: _695  and  _696
REMARK  271  A    between atoms: _696  and  _697
REMARK  272  A    between atoms: _702  and  _704
REMARK  273  A    between atoms: _704  and  _705
REMARK  274  A    between atoms: _708  and  _710
REMARK  275  A    between atoms: _710  and  _711
REMARK  276  A    between atoms: _713  and  _715
REMARK  277  A    between atoms: _715  and  _716
REMARK  278  A    between atoms: _719  and  _721
REMARK  279  A    between atoms: _721  and  _722
REMARK  280  A    between atoms: _725  and  _727
REMARK  281  A    between atoms: _727  and  _728
REMARK  282  A    between atoms: _727  and  _730
REMARK  283  A    between atoms: _730  and  _731
REMARK  284  A    between atoms: _731  and  _732
REMARK  285  A    between atoms: _735  and  _737
REMARK  286  A    between atoms: _737  and  _738
REMARK  287  A    between atoms: _737  and  _740
REMARK  288  A    between atoms: _740  and  _741
REMARK  289  A    between atoms: _746  and  _747
REMARK  290  A    between atoms: _749  and  _751
REMARK  291  A    between atoms: _751  and  _752
REMARK  292  A    between atoms: _751  and  _754
REMARK  293  A    between atoms: _754  and  _755
REMARK  294  A    between atoms: _760  and  _761
REMARK  295  A    between atoms: _763  and  _765
REMARK  296  A    between atoms: _765  and  _766
REMARK  297  A    between atoms: _765  and  _768
REMARK  298  A    between atoms: _768  and  _769
REMARK  299  A    between atoms: _769  and  _770
REMARK  300  A    between atoms: _770  and  _771
REMARK  301  A    between atoms: _780  and  _782
REMARK  302  A    between atoms: _782  and  _783
REMARK  303  A    between atoms: _786  and  _788
REMARK  304  A    between atoms: _788  and  _789
REMARK  305  A    between atoms: _788  and  _791
REMARK  306  A    between atoms: _791  and  _792
REMARK  307  A    between atoms: _797  and  _798
REMARK  308  A    between atoms: _800  and  _802
REMARK  309  A    between atoms: _802  and  _803
REMARK  310  A    between atoms: _802  and  _805
REMARK  311  A    between atoms: _805  and  _806
REMARK  312  A    between atoms: _809  and  _811
REMARK  313  A    between atoms: _811  and  _812
REMARK  314  A    between atoms: _811  and  _814
REMARK  315  A    between atoms: _814  and  _815
REMARK  316  A    between atoms: _815  and  _816
REMARK  317  A    between atoms: _819  and  _821
REMARK  318  A    between atoms: _821  and  _822
REMARK  319  A    between atoms: _821  and  _824
REMARK  320  A    between atoms: _826  and  _828
REMARK  321  A    between atoms: _828  and  _829
REMARK  322  A    between atoms: _828  and  _831
REMARK  323  A    between atoms: _834  and  _836
REMARK  324  A    between atoms: _836  and  _837
REMARK  325  A    between atoms: _836  and  _839
REMARK  326  A    between atoms: _839  and  _840
REMARK  327  A    between atoms: _840  and  _841
REMARK  328  A    between atoms: _844  and  _846
REMARK  329  A    between atoms: _846  and  _847
REMARK  330  A    between atoms: _846  and  _849
REMARK  331  A    between atoms: _849  and  _850
REMARK  332  A    between atoms: _860  and  _862
REMARK  333  A    between atoms: _862  and  _863
REMARK  334  A    between atoms: _862  and  _865
REMARK  335  A    between atoms: _865  and  _866
REMARK  336  A    between atoms: _869  and  _871
REMARK  337  A    between atoms: _871  and  _872
REMARK  338  A    between atoms: _871  and  _874
REMARK  339  A    between atoms: _874  and  _875
REMARK  340  A    between atoms: _875  and  _876
REMARK  341  A    between atoms: _876  and  _877
REMARK  342  A    between atoms: _886  and  _888
REMARK  343  A    between atoms: _888  and  _889
REMARK  344  A    between atoms: _888  and  _891
REMARK  345  A    between atoms: _891  and  _892
REMARK  346  A    between atoms: _897  and  _898
REMARK                            x       y       z     vdW  Elec       q    Type
REMARK                         _______ _______ _______ _____ _____    ______ ____
ROOT
ATOM      1  CA  ARG A   4       1.672 -19.506  11.007  0.00  0.00    +0.149 C 
ENDROOT
BRANCH   1   4
ATOM      2  C   LEU A   3       0.454 -18.103   9.433  0.00  0.00    +0.241 C 
ATOM      3  O   LEU A   3       0.041 -17.391  10.346  0.00  0.00    -0.273 OA
ATOM      4  N   ARG A   4       1.262 -19.143   9.648  0.00  0.00    -0.297 N 
ATOM      5  H   ARG A   4       1.605 -19.703   8.841  0.00  0.00    +0.150 HD
BRANCH   2   6
ATOM      6  CA  LEU A   3       0.082 -17.804   7.975  0.00  0.00    +0.149 C 
BRANCH   6   9
ATOM      7  C   ASN A   2       2.318 -17.123   7.412  0.00  0.00    +0.241 C 
ATOM      8  O   ASN A   2       2.224 -16.147   8.146  0.00  0.00    -0.273 OA
ATOM      9  N   LEU A   3       1.317 -17.981   7.230  0.00  0.00    -0.297 N 
ATOM     10  H   LEU A   3       1.418 -18.771   6.561  0.00  0.00    +0.150 HD
BRANCH   7  11
ATOM     11  CA  ASN A   2       3.624 -17.415   6.692  0.00  0.00    +0.158 C 
BRANCH  11  14
ATOM     12  C   VAL A   1       4.125 -19.703   7.049  0.00  0.00    +0.238 C 
ATOM     13  O   VAL A   1       4.254 -19.463   8.249  0.00  0.00    -0.274 OA
ATOM     14  N   ASN A   2       3.778 -18.763   6.185  0.00  0.00    -0.297 N 
ATOM     15  H   ASN A   2       3.622 -18.983   5.181  0.00  0.00    +0.150 HD
BRANCH  12  16
ATOM     16  CA  VAL A   1       4.334 -21.118   6.516  0.00  0.00    +0.145 C 
BRANCH  16  17
ATOM     17  CB  VAL A   1       5.770 -21.219   5.947  0.00  0.00    +0.025 C 
ATOM     18  CG2 VAL A   1       6.784 -20.684   6.964  0.00  0.00    +0.002 C 
ATOM     19  CG1 VAL A   1       6.086 -22.672   5.610  0.00  0.00    +0.002 C 
ENDBRANCH  16  17
BRANCH  16  20
ATOM     20  N   VAL A   1       3.346 -21.483   5.520  0.00  0.00    -0.238 NA
ATOM     21  H   VAL A   1       3.647 -21.670   4.542  0.00  0.00    +0.142 HD
ENDBRANCH  16  20
ENDBRANCH  12  16
ENDBRANCH  11  14
BRANCH  11  22
ATOM     22  CB  ASN A   2       3.961 -16.415   5.595  0.00  0.00    +0.114 C 
BRANCH  22  23
ATOM     23  CG  ASN A   2       5.437 -16.475   5.237  0.00  0.00    +0.222 C 
ATOM     24  ND2 ASN A   2       6.225 -15.623   5.866  0.00  0.00    -0.329 N 
ATOM     25 HD21 ASN A   2       5.820 -14.932   6.529  0.00  0.00    +0.145 HD
ATOM     26 HD22 ASN A   2       7.251 -15.643   5.699  0.00  0.00    +0.145 HD
ATOM     27  OD1 ASN A   2       5.868 -17.312   4.443  0.00  0.00    -0.275 OA
ENDBRANCH  22  23
ENDBRANCH  11  22
ENDBRANCH   7  11
ENDBRANCH   6   9
BRANCH   6  28
ATOM     28  CB  LEU A   3      -0.997 -18.774   7.497  0.00  0.00    +0.029 C 
BRANCH  28  29
ATOM     29  CG  LEU A   3      -1.876 -18.287   6.341  0.00  0.00    +0.002 C 
ATOM     30  CD2 LEU A   3      -2.916 -17.335   6.888  0.00  0.00    +0.000 C 
ATOM     31  CD1 LEU A   3      -2.525 -19.469   5.626  0.00  0.00    +0.000 C 
ENDBRANCH  28  29
ENDBRANCH   6  28
ENDBRANCH   2   6
ENDBRANCH   1   4
BRANCH   1  32
ATOM     32  C   ARG A   4       2.511 -18.401  11.650  0.00  0.00    +0.241 C 
ATOM     33  O   ARG A   4       2.355 -18.106  12.834  0.00  0.00    -0.273 OA
ATOM     34  N   THR A   5       3.405 -17.798  10.874  0.00  0.00    -0.295 N 
ATOM     35  H   THR A   5       3.506 -18.091   9.881  0.00  0.00    +0.150 HD
BRANCH  34  36
ATOM     36  CA  THR A   5       4.248 -16.727  11.401  0.00  0.00    +0.176 C 
BRANCH  36  37
ATOM     37  C   THR A   5       3.378 -15.575  11.903  0.00  0.00    +0.243 C 
ATOM     38  O   THR A   5       3.627 -15.017  12.974  0.00  0.00    -0.273 OA
ATOM     39  N   LEU A   6       2.342 -15.226  11.149  0.00  0.00    -0.297 N 
ATOM     40  H   LEU A   6       2.151 -15.728  10.258  0.00  0.00    +0.150 HD
BRANCH  39  41
ATOM     41  CA  LEU A   6       1.474 -14.136  11.577  0.00  0.00    +0.149 C 
BRANCH  41  42
ATOM     42  C   LEU A   6       0.656 -14.483  12.815  0.00  0.00    +0.241 C 
ATOM     43  O   LEU A   6       0.302 -13.598  13.588  0.00  0.00    -0.273 OA
ATOM     44  N   LEU A   7       0.350 -15.762  13.018  0.00  0.00    -0.298 N 
ATOM     45  H   LEU A   7       0.642 -16.488  12.333  0.00  0.00    +0.150 HD
BRANCH  44  46
ATOM     46  CA  LEU A   7      -0.401 -16.133  14.213  0.00  0.00    +0.137 C 
BRANCH  46  47
ATOM     47  C   LEU A   7       0.444 -15.758  15.434  0.00  0.00    +0.227 C 
ATOM     48  O   LEU A   7      -0.090 -15.301  16.437  0.00  0.00    -0.286 OA
ENDBRANCH  46  47
BRANCH  46  49
ATOM     49  CB  LEU A   7      -0.708 -17.633  14.221  0.00  0.00    +0.028 C 
BRANCH  49  50
ATOM     50  CG  LEU A   7      -1.956 -18.085  13.449  0.00  0.00    +0.002 C 
ATOM     51  CD2 LEU A   7      -3.229 -17.546  14.105  0.00  0.00    +0.000 C 
ATOM     52  CD1 LEU A   7      -1.994 -19.609  13.416  0.00  0.00    +0.000 C 
ENDBRANCH  49  50
ENDBRANCH  46  49
ENDBRANCH  44  46
ENDBRANCH  41  42
BRANCH  41  53
ATOM     53  CB  LEU A   6       0.561 -13.688  10.430  0.00  0.00    +0.029 C 
BRANCH  53  54
ATOM     54  CG  LEU A   6       1.352 -13.070   9.265  0.00  0.00    +0.002 C 
ATOM     55  CD2 LEU A   6       2.288 -11.992   9.813  0.00  0.00    +0.000 C 
ATOM     56  CD1 LEU A   6       0.396 -12.461   8.230  0.00  0.00    +0.000 C 
ENDBRANCH  53  54
ENDBRANCH  41  53
ENDBRANCH  39  41
ENDBRANCH  36  37
BRANCH  36  57
ATOM     57  CB  THR A   5       5.236 -16.194  10.330  0.00  0.00    +0.137 C 
ATOM     58  CG2 THR A   5       5.999 -14.983  10.858  0.00  0.00    +0.034 C 
BRANCH  57  59
ATOM     59  OG1 THR A   5       6.171 -17.222   9.984  0.00  0.00    -0.382 OA
ATOM     60  HG1 THR A   5       6.800 -16.878   9.301  0.00  0.00    +0.210 HD
ENDBRANCH  57  59
ENDBRANCH  36  57
ENDBRANCH  34  36
ENDBRANCH   1  32
BRANCH   1  61
ATOM     61  CB  ARG A   4       2.483 -20.806  11.019  0.00  0.00    +0.033 C 
BRANCH  61  62
ATOM     62  CG  ARG A   4       1.742 -22.031  10.540  0.00  0.00    +0.045 C 
BRANCH  62  63
ATOM     63  CD  ARG A   4       2.565 -23.292  10.772  0.00  0.00    +0.174 C 
BRANCH  63  64
ATOM     64  NE  ARG A   4       2.664 -24.101   9.555  0.00  0.00    -0.265 N 
ATOM     65  HE  ARG A   4       1.831 -24.656   9.273  0.00  0.00    +0.259 HD
ATOM     66  CZ  ARG A   4       3.746 -24.173   8.788  0.00  0.00    +0.342 C 
ATOM     67  NH2 ARG A   4       4.840 -23.490   9.108  0.00  0.00    -0.292 N 
ATOM     68 HH21 ARG A   4       4.851 -22.896   9.962  0.00  0.00    +0.255 HD
ATOM     69 HH22 ARG A   4       5.685 -23.549   8.505  0.00  0.00    +0.255 HD
ATOM     70  NH1 ARG A   4       3.727 -24.920   7.696  0.00  0.00    -0.292 N 
ATOM     71 HH11 ARG A   4       2.867 -25.447   7.442  0.00  0.00    +0.255 HD
ATOM     72 HH12 ARG A   4       4.572 -24.980   7.092  0.00  0.00    +0.255 HD
ENDBRANCH  63  64
ENDBRANCH  62  63
ENDBRANCH  61  62
ENDBRANCH   1  61
TORSDOF 29
REMARK  Name = ../refined-set-2016/3ery/3ery_pocket.pdb
REMARK  346 active torsions:
REMARK  status: ('A' for Active; 'I' for Inactive)
REMARK    1  A    between atoms: _1  and  _3
REMARK    2  A    between atoms: _3  and  _4
REMARK    3  A    between atoms: _3  and  _6
REMARK    4  A    between atoms: _6  and  _7
REMARK    5  A    between atoms: _7  and  _8
REMARK    6  A    between atoms: _10  and  _12
REMARK    7  A    between atoms: _12  and  _13
REMARK    8  A    between atoms: _12  and  _15
REMARK    9  A    between atoms: _15  and  _16
REMARK   10  A    between atoms: _16  and  _17
REMARK   11  A    between atoms: _17  and  _18
REMARK   12  A    between atoms: _27  and  _29
REMARK   13  A    between atoms: _29  and  _30
REMARK   14  A    between atoms: _29  and  _32
REMARK   15  A    between atoms: _32  and  _33
REMARK   16  A    between atoms: _38  and  _39
REMARK   17  A    between atoms: _41  and  _43
REMARK   18  A    between atoms: _43  and  _44
REMARK   19  A    between atoms: _43  and  _46
REMARK   20  A    between atoms: _46  and  _47
REMARK   21  A    between atoms: _52  and  _53
REMARK   22  A    between atoms: _55  and  _57
REMARK   23  A    between atoms: _57  and  _58
REMARK   24  A    between atoms: _57  and  _60
REMARK   25  A    between atoms: _60  and  _61
REMARK   26  A    between atoms: _61  and  _62
REMARK   27  A    between atoms: _65  and  _67
REMARK   28  A    between atoms: _67  and  _68
REMARK   29  A    between atoms: _67  and  _70
REMARK   30  A    between atoms: _70  and  _71
REMARK   31  A    between atoms: _76  and  _77
REMARK   32  A    between atoms: _79  and  _81
REMARK   33  A    between atoms: _81  and  _82
REMARK   34  A    between atoms: _81  and  _84
REMARK   35  A    between atoms: _84  and  _85
REMARK   36  A    between atoms: _87  and  _89
REMARK   37  A    between atoms: _89  and  _90
REMARK   38  A    between atoms: _89  and  _92
REMARK   39  A    between atoms: _95  and  _97
REMARK   40  A    between atoms: _97  and  _98
REMARK   41  A    between atoms: _100  and  _102
REMARK   42  A    between atoms: _102  and  _103
REMARK   43  A    between atoms: _102  and  _105
REMARK   44  A    between atoms: _105  and  _106
REMARK   45  A    between atoms: _112  and  _114
REMARK   46  A    between atoms: _114  and  _115
REMARK   47  A    between atoms: _114  and  _117
REMARK   48  A    between atoms: _120  and  _122
REMARK   49  A    between atoms: _122  and  _123
REMARK   50  A    between atoms: _122  and  _125
REMARK   51  A    between atoms: _125  and  _126
REMARK   52  A    between atoms: _132  and  _134
REMARK   53  A    between atoms: _134  and  _135
REMARK   54  A    between atoms: _134  and  _137
REMARK   55  A    between atoms: _137  and  _138
REMARK   56  A    between atoms: _143  and  _144
REMARK   57  A    between atoms: _146  and  _148
REMARK   58  A    between atoms: _148  and  _149
REMARK   59  A    between atoms: _148  and  _151
REMARK   60  A    between atoms: _151  and  _152
REMARK   61  A    between atoms: _152  and  _153
REMARK   62  A    between atoms: _156  and  _158
REMARK   63  A    between atoms: _158  and  _159
REMARK   64  A    between atoms: _158  and  _161
REMARK   65  A    between atoms: _161  and  _162
REMARK   66  A    between atoms: _162  and  _163
REMARK   67  A    between atoms: _166  and  _168
REMARK   68  A    between atoms: _168  and  _169
REMARK   69  A    between atoms: _168  and  _171
REMARK   70  A    between atoms: _171  and  _172
REMARK   71  A    between atoms: _177  and  _178
REMARK   72  A    between atoms: _180  and  _182
REMARK   73  A    between atoms: _182  and  _183
REMARK   74  A    between atoms: _182  and  _185
REMARK   75  A    between atoms: _185  and  _186
REMARK   76  A    between atoms: _196  and  _198
REMARK   77  A    between atoms: _198  and  _199
REMARK   78  A    between atoms: _198  and  _201
REMARK   79  A    between atoms: _201  and  _202
REMARK   80  A    between atoms: _202  and  _203
REMARK   81  A    between atoms: _206  and  _208
REMARK   82  A    between atoms: _208  and  _209
REMARK   83  A    between atoms: _208  and  _211
REMARK   84  A    between atoms: _211  and  _212
REMARK   85  A    between atoms: _212  and  _213
REMARK   86  A    between atoms: _213  and  _214
REMARK   87  A    between atoms: _223  and  _225
REMARK   88  A    between atoms: _225  and  _226
REMARK   89  A    between atoms: _225  and  _228
REMARK   90  A    between atoms: _228  and  _229
REMARK   91  A    between atoms: _232  and  _234
REMARK   92  A    between atoms: _234  and  _235
REMARK   93  A    between atoms: _234  and  _237
REMARK   94  A    between atoms: _237  and  _238
REMARK   95  A    between atoms: _241  and  _243
REMARK   96  A    between atoms: _243  and  _244
REMARK   97  A    between atoms: _243  and  _246
REMARK   98  A    between atoms: _246  and  _247
REMARK   99  A    between atoms: _247  and  _248
REMARK  100  A    between atoms: _253  and  _255
REMARK  101  A    between atoms: _255  and  _256
REMARK  102  A    between atoms: _255  and  _258
REMARK  103  A    between atoms: _261  and  _263
REMARK  104  A    between atoms: _263  and  _264
REMARK  105  A    between atoms: _267  and  _269
REMARK  106  A    between atoms: _269  and  _270
REMARK  107  A    between atoms: _269  and  _272
REMARK  108  A    between atoms: _272  and  _273
REMARK  109  A    between atoms: _273  and  _274
REMARK  110  A    between atoms: _274  and  _275
REMARK  111  A    between atoms: _275  and  _276
REMARK  112  A    between atoms: _280  and  _282
REMARK  113  A    between atoms: _282  and  _283
REMARK  114  A    between atoms: _285  and  _287
REMARK  115  A    between atoms: _287  and  _288
REMARK  116  A    between atoms: _287  and  _290
REMARK  117  A    between atoms: _290  and  _291
REMARK  118  A    between atoms: _291  and  _292
REMARK  119  A    between atoms: _297  and  _299
REMARK  120  A    between atoms: _299  and  _300
REMARK  121  A    between atoms: _299  and  _302
REMARK  122  A    between atoms: _302  and  _303
REMARK  123  A    between atoms: _303  and  _304
REMARK  124  A    between atoms: _309  and  _311
REMARK  125  A    between atoms: _311  and  _312
REMARK  126  A    between atoms: _311  and  _314
REMARK  127  A    between atoms: _314  and  _315
REMARK  128  A    between atoms: _325  and  _327
REMARK  129  A    between atoms: _327  and  _328
REMARK  130  A    between atoms: _327  and  _330
REMARK  131  A    between atoms: _330  and  _331
REMARK  132  A    between atoms: _337  and  _339
REMARK  133  A    between atoms: _339  and  _340
REMARK  134  A    between atoms: _339  and  _342
REMARK  135  A    between atoms: _345  and  _347
REMARK  136  A    between atoms: _347  and  _348
REMARK  137  A    between atoms: _347  and  _350
REMARK  138  A    between atoms: _350  and  _351
REMARK  139  A    between atoms: _356  and  _358
REMARK  140  A    between atoms: _358  and  _359
REMARK  141  A    between atoms: _358  and  _361
REMARK  142  A    between atoms: _361  and  _362
REMARK  143  A    between atoms: _365  and  _367
REMARK  144  A    between atoms: _367  and  _368
REMARK  145  A    between atoms: _367  and  _370
REMARK  146  A    between atoms: _370  and  _371
REMARK  147  A    between atoms: _371  and  _372
REMARK  148  A    between atoms: _372  and  _373
REMARK  149  A    between atoms: _382  and  _384
REMARK  150  A    between atoms: _384  and  _385
REMARK  151  A    between atoms: _384  and  _387
REMARK  152  A    between atoms: _387  and  _388
REMARK  153  A    between atoms: _391  and  _393
REMARK  154  A    between atoms: _393  and  _394
REMARK  155  A    between atoms: _393  and  _396
REMARK  156  A    between atoms: _396  and  _397
REMARK  157  A    between atoms: _400  and  _402
REMARK  158  A    between atoms: _402  and  _403
REMARK  159  A    between atoms: _402  and  _405
REMARK  160  A    between atoms: _405  and  _406
REMARK  161  A    between atoms: _409  and  _411
REMARK  162  A    between atoms: _411  and  _412
REMARK  163  A    between atoms: _411  and  _414
REMARK  164  A    between atoms: _414  and  _415
REMARK  165  A    between atoms: _420  and  _421
REMARK  166  A    between atoms: _423  and  _425
REMARK  167  A    between atoms: _425  and  _426
REMARK  168  A    between atoms: _425  and  _428
REMARK  169  A    between atoms: _428  and  _429
REMARK  170  A    between atoms: _432  and  _434
REMARK  171  A    between atoms: _434  and  _435
REMARK  172  A    between atoms: _434  and  _437
REMARK  173  A    between atoms: _437  and  _438
REMARK  174  A    between atoms: _438  and  _439
REMARK  175  A    between atoms: _444  and  _446
REMARK  176  A    between atoms: _446  and  _447
REMARK  177  A    between atoms: _446  and  _449
REMARK  178  A    between atoms: _449  and  _450
REMARK  179  A    between atoms: _450  and  _451
REMARK  180  A    between atoms: _451  and  _452
REMARK  181  A    between atoms: _461  and  _463
REMARK  182  A    between atoms: _463  and  _464
REMARK  183  A    between atoms: _463  and  _466
REMARK  184  A    between atoms: _466  and  _467
REMARK  185  A    between atoms: _472  and  _473
REMARK  186  A    between atoms: _475  and  _477
REMARK  187  A    between atoms: _477  and  _478
REMARK  188  A    between atoms: _480  and  _482
REMARK  189  A    between atoms: _482  and  _483
REMARK  190  A    between atoms: _482  and  _485
REMARK  191  A    between atoms: _485  and  _486
REMARK  192  A    between atoms: _491  and  _492
REMARK  193  A    between atoms: _494  and  _496
REMARK  194  A    between atoms: _496  and  _497
REMARK  195  A    between atoms: _496  and  _499
REMARK  196  A    between atoms: _499  and  _500
REMARK  197  A    between atoms: _500  and  _501
REMARK  198  A    between atoms: _504  and  _506
REMARK  199  A    between atoms: _506  and  _507
REMARK  200  A    between atoms: _506  and  _509
REMARK  201  A    between atoms: _509  and  _510
REMARK  202  A    between atoms: _516  and  _518
REMARK  203  A    between atoms: _518  and  _519
REMARK  204  A    between atoms: _522  and  _524
REMARK  205  A    between atoms: _524  and  _525
REMARK  206  A    between atoms: _524  and  _527
REMARK  207  A    between atoms: _527  and  _528
REMARK  208  A    between atoms: _533  and  _534
REMARK  209  A    between atoms: _536  and  _538
REMARK  210  A    between atoms: _538  and  _539
REMARK  211  A    between atoms: _538  and  _541
REMARK  212  A    between atoms: _541  and  _542
REMARK  213  A    between atoms: _547  and  _548
REMARK  214  A    between atoms: _550  and  _552
REMARK  215  A    between atoms: _552  and  _553
REMARK  216  A    between atoms: _552  and  _555
REMARK  217  A    between atoms: _555  and  _556
REMARK  218  A    between atoms: _559  and  _561
REMARK  219  A    between atoms: _561  and  _562
REMARK  220  A    between atoms: _561  and  _564
REMARK  221  A    between atoms: _564  and  _565
REMARK  222  A    between atoms: _575  and  _577
REMARK  223  A    between atoms: _577  and  _578
REMARK  224  A    between atoms: _581  and  _583
REMARK  225  A    between atoms: _583  and  _584
REMARK  226  A    between atoms: _587  and  _589
REMARK  227  A    between atoms: _589  and  _590
REMARK  228  A    between atoms: _589  and  _592
REMARK  229  A    between atoms: _592  and  _593
REMARK  230  A    between atoms: _593  and  _594
REMARK  231  A    between atoms: _599  and  _601
REMARK  232  A    between atoms: _601  and  _602
REMARK  233  A    between atoms: _601  and  _604
REMARK  234  A    between atoms: _604  and  _605
REMARK  235  A    between atoms: _608  and  _610
REMARK  236  A    between atoms: _610  and  _611
REMARK  237  A    between atoms: _610  and  _613
REMARK  238  A    between atoms: _613  and  _614
REMARK  239  A    between atoms: _617  and  _619
REMARK  240  A    between atoms: _619  and  _620
REMARK  241  A    between atoms: _619  and  _622
REMARK  242  A    between atoms: _622  and  _623
REMARK  243  A    between atoms: _623  and  _624
REMARK  244  A    between atoms: _624  and  _625
REMARK  245  A    between atoms: _634  and  _636
REMARK  246  A    between atoms: _636  and  _637
REMARK  247  A    between atoms: _636  and  _639
REMARK  248  A    between atoms: _639  and  _640
REMARK  249  A    between atoms: _640  and  _641
REMARK  250  A    between atoms: _641  and  _642
REMARK  251  A    between atoms: _651  and  _653
REMARK  252  A    between atoms: _653  and  _654
REMARK  253  A    between atoms: _653  and  _656
REMARK  254  A    between atoms: _656  and  _657
REMARK  255  A    between atoms: _657  and  _658
REMARK  256  A    between atoms: _658  and  _659
REMARK  257  A    between atoms: _659  and  _660
REMARK  258  A    between atoms: _664  and  _666
REMARK  259  A    between atoms: _666  and  _667
REMARK  260  A    between atoms: _666  and  _669
REMARK  261  A    between atoms: _669  and  _670
REMARK  262  A    between atoms: _680  and  _682
REMARK  263  A    between atoms: _682  and  _683
REMARK  264  A    between atoms: _682  and  _685
REMARK  265  A    between atoms: _685  and  _686
REMARK  266  A    between atoms: _686  and  _687
REMARK  267  A    between atoms: _690  and  _692
REMARK  268  A    between atoms: _692  and  _693
REMARK  269  A    between atoms: _692  and  _695
REMARK  270  A    between atoms: _695  and  _696
REMARK  271  A    between atoms: _696  and  _697
REMARK  272  A    between atoms: _702  and  _704
REMARK  273  A    between atoms: _704  and  _705
REMARK  274  A    between atoms: _708  and  _710
REMARK  275  A    between atoms: _710  and  _711
REMARK  276  A    between atoms: _713  and  _715
REMARK  277  A    between atoms: _715  and  _716
REMARK  278  A    between atoms: _719  and  _721
REMARK  279  A    between atoms: _721  and  _722
REMARK  280  A    between atoms: _725  and  _727
REMARK  281  A    between atoms: _727  and  _728
REMARK  282  A    between atoms: _727  and  _730
REMARK  283  A    between atoms: _730  and  _731
REMARK  284  A    between atoms: _731  and  _732
REMARK  285  A    between atoms: _735  and  _737
REMARK  286  A    between atoms: _737  and  _738
REMARK  287  A    between atoms: _737  and  _740
REMARK  288  A    between atoms: _740  and  _741
REMARK  289  A    between atoms: _746  and  _747
REMARK  290  A    between atoms: _749  and  _751
REMARK  291  A    between atoms: _751  and  _752
REMARK  292  A    between atoms: _751  and  _754
REMARK  293  A    between atoms: _754  and  _755
REMARK  294  A    between atoms: _760  and  _761
REMARK  295  A    between atoms: _763  and  _765
REMARK  296  A    between atoms: _765  and  _766
REMARK  297  A    between atoms: _765  and  _768
REMARK  298  A    between atoms: _768  and  _769
REMARK  299  A    between atoms: _769  and  _770
REMARK  300  A    between atoms: _770  and  _771
REMARK  301  A    between atoms: _780  and  _782
REMARK  302  A    between atoms: _782  and  _783
REMARK  303  A    between atoms: _786  and  _788
REMARK  304  A    between atoms: _788  and  _789
REMARK  305  A    between atoms: _788  and  _791
REMARK  306  A    between atoms: _791  and  _792
REMARK  307  A    between atoms: _797  and  _798
REMARK  308  A    between atoms: _800  and  _802
REMARK  309  A    between atoms: _802  and  _803
REMARK  310  A    between atoms: _802  and  _805
REMARK  311  A    between atoms: _805  and  _806
REMARK  312  A    between atoms: _809  and  _811
REMARK  313  A    between atoms: _811  and  _812
REMARK  314  A    between atoms: _811  and  _814
REMARK  315  A    between atoms: _814  and  _815
REMARK  316  A    between atoms: _815  and  _816
REMARK  317  A    between atoms: _819  and  _821
REMARK  318  A    between atoms: _821  and  _822
REMARK  319  A    between atoms: _821  and  _824
REMARK  320  A    between atoms: _826  and  _828
REMARK  321  A    between atoms: _828  and  _829
REMARK  322  A    between atoms: _828  and  _831
REMARK  323  A    between atoms: _834  and  _836
REMARK  324  A    between atoms: _836  and  _837
REMARK  325  A    between atoms: _836  and  _839
REMARK  326  A    between atoms: _839  and  _840
REMARK  327  A    between atoms: _840  and  _841
REMARK  328  A    between atoms: _844  and  _846
REMARK  329  A    between atoms: _846  and  _847
REMARK  330  A    between atoms: _846  and  _849
REMARK  331  A    between atoms: _849  and  _850
REMARK  332  A    between atoms: _860  and  _862
REMARK  333  A    between atoms: _862  and  _863
REMARK  334  A    between atoms: _862  and  _865
REMARK  335  A    between atoms: _865  and  _866
REMARK  336  A    between atoms: _869  and  _871
REMARK  337  A    between atoms: _871  and  _872
REMARK  338  A    between atoms: _871  and  _874
REMARK  339  A    between atoms: _874  and  _875
REMARK  340  A    between atoms: _875  and  _876
REMARK  341  A    between atoms: _876  and  _877
REMARK  342  A    between atoms: _886  and  _888
REMARK  343  A    between atoms: _888  and  _889
REMARK  344  A    between atoms: _888  and  _891
REMARK  345  A    between atoms: _891  and  _892
REMARK  346  A    between atoms: _897  and  _898
REMARK                            x       y       z     vdW  Elec       q    Type
REMARK                         _______ _______ _______ _____ _____    ______ ____
ROOT
ATOM      1  CG  TYR A   1       4.704 -11.556  13.432  0.00  0.00    -0.020 A 
ATOM      2  CD2 TYR A   1       5.709 -12.340  14.010  0.00  0.00    -0.001 A 
ATOM      3  CE2 TYR A   1       6.922 -12.574  13.342  0.00  0.00    +0.036 A 
ATOM      4  CZ  TYR A   1       7.127 -12.025  12.093  0.00  0.00    +0.134 A 
ATOM      5  CE1 TYR A   1       6.140 -11.237  11.504  0.00  0.00    +0.036 A 
ATOM      6  CD1 TYR A   1       4.947 -11.010  12.174  0.00  0.00    -0.001 A 
ENDROOT
BRANCH   4   7
ATOM      7  OH  TYR A   1       8.294 -12.277  11.404  0.00  0.00    -0.506 OA
ATOM      8  HH  TYR A   1       8.082 -12.743  10.557  0.00  0.00    +0.292 HD
ENDBRANCH   4   7
BRANCH   1   9
ATOM      9  CB  TYR A   1       3.370 -11.316  14.125  0.00  0.00    +0.051 C 
BRANCH   9  10
ATOM     10  CA  TYR A   1       3.201 -11.934  15.524  0.00  0.00    +0.137 C 
BRANCH  10  11
ATOM     11  N   TYR A   1       2.984 -13.387  15.453  0.00  0.00    -0.239 NA
ATOM     12  H   TYR A   1       2.896 -13.850  14.526  0.00  0.00    +0.142 HD
ENDBRANCH  10  11
BRANCH  10  13
ATOM     13  C   TYR A   1       2.036 -11.229  16.214  0.00  0.00    +0.224 C 
ATOM     14  O   TYR A   1       2.242 -10.284  16.972  0.00  0.00    -0.287 OA
ENDBRANCH  10  13
ENDBRANCH   9  10
ENDBRANCH   1   9
TORSDOF 5
REMARK  Name = ../refined-set-2016/3ery/3ery_pocket.pdb
REMARK  346 active torsions:
REMARK  status: ('A' for Active; 'I' for Inactive)
REMARK    1  A    between atoms: _1  and  _3
REMARK    2  A    between atoms: _3  and  _4
REMARK    3  A    between atoms: _3  and  _6
REMARK    4  A    between atoms: _6  and  _7
REMARK    5  A    between atoms: _7  and  _8
REMARK    6  A    between atoms: _10  and  _12
REMARK    7  A    between atoms: _12  and  _13
REMARK    8  A    between atoms: _12  and  _15
REMARK    9  A    between atoms: _15  and  _16
REMARK   10  A    between atoms: _16  and  _17
REMARK   11  A    between atoms: _17  and  _18
REMARK   12  A    between atoms: _27  and  _29
REMARK   13  A    between atoms: _29  and  _30
REMARK   14  A    between atoms: _29  and  _32
REMARK   15  A    between atoms: _32  and  _33
REMARK   16  A    between atoms: _38  and  _39
REMARK   17  A    between atoms: _41  and  _43
REMARK   18  A    between atoms: _43  and  _44
REMARK   19  A    between atoms: _43  and  _46
REMARK   20  A    between atoms: _46  and  _47
REMARK   21  A    between atoms: _52  and  _53
REMARK   22  A    between atoms: _55  and  _57
REMARK   23  A    between atoms: _57  and  _58
REMARK   24  A    between atoms: _57  and  _60
REMARK   25  A    between atoms: _60  and  _61
REMARK   26  A    between atoms: _61  and  _62
REMARK   27  A    between atoms: _65  and  _67
REMARK   28  A    between atoms: _67  and  _68
REMARK   29  A    between atoms: _67  and  _70
REMARK   30  A    between atoms: _70  and  _71
REMARK   31  A    between atoms: _76  and  _77
REMARK   32  A    between atoms: _79  and  _81
REMARK   33  A    between atoms: _81  and  _82
REMARK   34  A    between atoms: _81  and  _84
REMARK   35  A    between atoms: _84  and  _85
REMARK   36  A    between atoms: _87  and  _89
REMARK   37  A    between atoms: _89  and  _90
REMARK   38  A    between atoms: _89  and  _92
REMARK   39  A    between atoms: _95  and  _97
REMARK   40  A    between atoms: _97  and  _98
REMARK   41  A    between atoms: _100  and  _102
REMARK   42  A    between atoms: _102  and  _103
REMARK   43  A    between atoms: _102  and  _105
REMARK   44  A    between atoms: _105  and  _106
REMARK   45  A    between atoms: _112  and  _114
REMARK   46  A    between atoms: _114  and  _115
REMARK   47  A    between atoms: _114  and  _117
REMARK   48  A    between atoms: _120  and  _122
REMARK   49  A    between atoms: _122  and  _123
REMARK   50  A    between atoms: _122  and  _125
REMARK   51  A    between atoms: _125  and  _126
REMARK   52  A    between atoms: _132  and  _134
REMARK   53  A    between atoms: _134  and  _135
REMARK   54  A    between atoms: _134  and  _137
REMARK   55  A    between atoms: _137  and  _138
REMARK   56  A    between atoms: _143  and  _144
REMARK   57  A    between atoms: _146  and  _148
REMARK   58  A    between atoms: _148  and  _149
REMARK   59  A    between atoms: _148  and  _151
REMARK   60  A    between atoms: _151  and  _152
REMARK   61  A    between atoms: _152  and  _153
REMARK   62  A    between atoms: _156  and  _158
REMARK   63  A    between atoms: _158  and  _159
REMARK   64  A    between atoms: _158  and  _161
REMARK   65  A    between atoms: _161  and  _162
REMARK   66  A    between atoms: _162  and  _163
REMARK   67  A    between atoms: _166  and  _168
REMARK   68  A    between atoms: _168  and  _169
REMARK   69  A    between atoms: _168  and  _171
REMARK   70  A    between atoms: _171  and  _172
REMARK   71  A    between atoms: _177  and  _178
REMARK   72  A    between atoms: _180  and  _182
REMARK   73  A    between atoms: _182  and  _183
REMARK   74  A    between atoms: _182  and  _185
REMARK   75  A    between atoms: _185  and  _186
REMARK   76  A    between atoms: _196  and  _198
REMARK   77  A    between atoms: _198  and  _199
REMARK   78  A    between atoms: _198  and  _201
REMARK   79  A    between atoms: _201  and  _202
REMARK   80  A    between atoms: _202  and  _203
REMARK   81  A    between atoms: _206  and  _208
REMARK   82  A    between atoms: _208  and  _209
REMARK   83  A    between atoms: _208  and  _211
REMARK   84  A    between atoms: _211  and  _212
REMARK   85  A    between atoms: _212  and  _213
REMARK   86  A    between atoms: _213  and  _214
REMARK   87  A    between atoms: _223  and  _225
REMARK   88  A    between atoms: _225  and  _226
REMARK   89  A    between atoms: _225  and  _228
REMARK   90  A    between atoms: _228  and  _229
REMARK   91  A    between atoms: _232  and  _234
REMARK   92  A    between atoms: _234  and  _235
REMARK   93  A    between atoms: _234  and  _237
REMARK   94  A    between atoms: _237  and  _238
REMARK   95  A    between atoms: _241  and  _243
REMARK   96  A    between atoms: _243  and  _244
REMARK   97  A    between atoms: _243  and  _246
REMARK   98  A    between atoms: _246  and  _247
REMARK   99  A    between atoms: _247  and  _248
REMARK  100  A    between atoms: _253  and  _255
REMARK  101  A    between atoms: _255  and  _256
REMARK  102  A    between atoms: _255  and  _258
REMARK  103  A    between atoms: _261  and  _263
REMARK  104  A    between atoms: _263  and  _264
REMARK  105  A    between atoms: _267  and  _269
REMARK  106  A    between atoms: _269  and  _270
REMARK  107  A    between atoms: _269  and  _272
REMARK  108  A    between atoms: _272  and  _273
REMARK  109  A    between atoms: _273  and  _274
REMARK  110  A    between atoms: _274  and  _275
REMARK  111  A    between atoms: _275  and  _276
REMARK  112  A    between atoms: _280  and  _282
REMARK  113  A    between atoms: _282  and  _283
REMARK  114  A    between atoms: _285  and  _287
REMARK  115  A    between atoms: _287  and  _288
REMARK  116  A    between atoms: _287  and  _290
REMARK  117  A    between atoms: _290  and  _291
REMARK  118  A    between atoms: _291  and  _292
REMARK  119  A    between atoms: _297  and  _299
REMARK  120  A    between atoms: _299  and  _300
REMARK  121  A    between atoms: _299  and  _302
REMARK  122  A    between atoms: _302  and  _303
REMARK  123  A    between atoms: _303  and  _304
REMARK  124  A    between atoms: _309  and  _311
REMARK  125  A    between atoms: _311  and  _312
REMARK  126  A    between atoms: _311  and  _314
REMARK  127  A    between atoms: _314  and  _315
REMARK  128  A    between atoms: _325  and  _327
REMARK  129  A    between atoms: _327  and  _328
REMARK  130  A    between atoms: _327  and  _330
REMARK  131  A    between atoms: _330  and  _331
REMARK  132  A    between atoms: _337  and  _339
REMARK  133  A    between atoms: _339  and  _340
REMARK  134  A    between atoms: _339  and  _342
REMARK  135  A    between atoms: _345  and  _347
REMARK  136  A    between atoms: _347  and  _348
REMARK  137  A    between atoms: _347  and  _350
REMARK  138  A    between atoms: _350  and  _351
REMARK  139  A    between atoms: _356  and  _358
REMARK  140  A    between atoms: _358  and  _359
REMARK  141  A    between atoms: _358  and  _361
REMARK  142  A    between atoms: _361  and  _362
REMARK  143  A    between atoms: _365  and  _367
REMARK  144  A    between atoms: _367  and  _368
REMARK  145  A    between atoms: _367  and  _370
REMARK  146  A    between atoms: _370  and  _371
REMARK  147  A    between atoms: _371  and  _372
REMARK  148  A    between atoms: _372  and  _373
REMARK  149  A    between atoms: _382  and  _384
REMARK  150  A    between atoms: _384  and  _385
REMARK  151  A    between atoms: _384  and  _387
REMARK  152  A    between atoms: _387  and  _388
REMARK  153  A    between atoms: _391  and  _393
REMARK  154  A    between atoms: _393  and  _394
REMARK  155  A    between atoms: _393  and  _396
REMARK  156  A    between atoms: _396  and  _397
REMARK  157  A    between atoms: _400  and  _402
REMARK  158  A    between atoms: _402  and  _403
REMARK  159  A    between atoms: _402  and  _405
REMARK  160  A    between atoms: _405  and  _406
REMARK  161  A    between atoms: _409  and  _411
REMARK  162  A    between atoms: _411  and  _412
REMARK  163  A    between atoms: _411  and  _414
REMARK  164  A    between atoms: _414  and  _415
REMARK  165  A    between atoms: _420  and  _421
REMARK  166  A    between atoms: _423  and  _425
REMARK  167  A    between atoms: _425  and  _426
REMARK  168  A    between atoms: _425  and  _428
REMARK  169  A    between atoms: _428  and  _429
REMARK  170  A    between atoms: _432  and  _434
REMARK  171  A    between atoms: _434  and  _435
REMARK  172  A    between atoms: _434  and  _437
REMARK  173  A    between atoms: _437  and  _438
REMARK  174  A    between atoms: _438  and  _439
REMARK  175  A    between atoms: _444  and  _446
REMARK  176  A    between atoms: _446  and  _447
REMARK  177  A    between atoms: _446  and  _449
REMARK  178  A    between atoms: _449  and  _450
REMARK  179  A    between atoms: _450  and  _451
REMARK  180  A    between atoms: _451  and  _452
REMARK  181  A    between atoms: _461  and  _463
REMARK  182  A    between atoms: _463  and  _464
REMARK  183  A    between atoms: _463  and  _466
REMARK  184  A    between atoms: _466  and  _467
REMARK  185  A    between atoms: _472  and  _473
REMARK  186  A    between atoms: _475  and  _477
REMARK  187  A    between atoms: _477  and  _478
REMARK  188  A    between atoms: _480  and  _482
REMARK  189  A    between atoms: _482  and  _483
REMARK  190  A    between atoms: _482  and  _485
REMARK  191  A    between atoms: _485  and  _486
REMARK  192  A    between atoms: _491  and  _492
REMARK  193  A    between atoms: _494  and  _496
REMARK  194  A    between atoms: _496  and  _497
REMARK  195  A    between atoms: _496  and  _499
REMARK  196  A    between atoms: _499  and  _500
REMARK  197  A    between atoms: _500  and  _501
REMARK  198  A    between atoms: _504  and  _506
REMARK  199  A    between atoms: _506  and  _507
REMARK  200  A    between atoms: _506  and  _509
REMARK  201  A    between atoms: _509  and  _510
REMARK  202  A    between atoms: _516  and  _518
REMARK  203  A    between atoms: _518  and  _519
REMARK  204  A    between atoms: _522  and  _524
REMARK  205  A    between atoms: _524  and  _525
REMARK  206  A    between atoms: _524  and  _527
REMARK  207  A    between atoms: _527  and  _528
REMARK  208  A    between atoms: _533  and  _534
REMARK  209  A    between atoms: _536  and  _538
REMARK  210  A    between atoms: _538  and  _539
REMARK  211  A    between atoms: _538  and  _541
REMARK  212  A    between atoms: _541  and  _542
REMARK  213  A    between atoms: _547  and  _548
REMARK  214  A    between atoms: _550  and  _552
REMARK  215  A    between atoms: _552  and  _553
REMARK  216  A    between atoms: _552  and  _555
REMARK  217  A    between atoms: _555  and  _556
REMARK  218  A    between atoms: _559  and  _561
REMARK  219  A    between atoms: _561  and  _562
REMARK  220  A    between atoms: _561  and  _564
REMARK  221  A    between atoms: _564  and  _565
REMARK  222  A    between atoms: _575  and  _577
REMARK  223  A    between atoms: _577  and  _578
REMARK  224  A    between atoms: _581  and  _583
REMARK  225  A    between atoms: _583  and  _584
REMARK  226  A    between atoms: _587  and  _589
REMARK  227  A    between atoms: _589  and  _590
REMARK  228  A    between atoms: _589  and  _592
REMARK  229  A    between atoms: _592  and  _593
REMARK  230  A    between atoms: _593  and  _594
REMARK  231  A    between atoms: _599  and  _601
REMARK  232  A    between atoms: _601  and  _602
REMARK  233  A    between atoms: _601  and  _604
REMARK  234  A    between atoms: _604  and  _605
REMARK  235  A    between atoms: _608  and  _610
REMARK  236  A    between atoms: _610  and  _611
REMARK  237  A    between atoms: _610  and  _613
REMARK  238  A    between atoms: _613  and  _614
REMARK  239  A    between atoms: _617  and  _619
REMARK  240  A    between atoms: _619  and  _620
REMARK  241  A    between atoms: _619  and  _622
REMARK  242  A    between atoms: _622  and  _623
REMARK  243  A    between atoms: _623  and  _624
REMARK  244  A    between atoms: _624  and  _625
REMARK  245  A    between atoms: _634  and  _636
REMARK  246  A    between atoms: _636  and  _637
REMARK  247  A    between atoms: _636  and  _639
REMARK  248  A    between atoms: _639  and  _640
REMARK  249  A    between atoms: _640  and  _641
REMARK  250  A    between atoms: _641  and  _642
REMARK  251  A    between atoms: _651  and  _653
REMARK  252  A    between atoms: _653  and  _654
REMARK  253  A    between atoms: _653  and  _656
REMARK  254  A    between atoms: _656  and  _657
REMARK  255  A    between atoms: _657  and  _658
REMARK  256  A    between atoms: _658  and  _659
REMARK  257  A    between atoms: _659  and  _660
REMARK  258  A    between atoms: _664  and  _666
REMARK  259  A    between atoms: _666  and  _667
REMARK  260  A    between atoms: _666  and  _669
REMARK  261  A    between atoms: _669  and  _670
REMARK  262  A    between atoms: _680  and  _682
REMARK  263  A    between atoms: _682  and  _683
REMARK  264  A    between atoms: _682  and  _685
REMARK  265  A    between atoms: _685  and  _686
REMARK  266  A    between atoms: _686  and  _687
REMARK  267  A    between atoms: _690  and  _692
REMARK  268  A    between atoms: _692  and  _693
REMARK  269  A    between atoms: _692  and  _695
REMARK  270  A    between atoms: _695  and  _696
REMARK  271  A    between atoms: _696  and  _697
REMARK  272  A    between atoms: _702  and  _704
REMARK  273  A    between atoms: _704  and  _705
REMARK  274  A    between atoms: _708  and  _710
REMARK  275  A    between atoms: _710  and  _711
REMARK  276  A    between atoms: _713  and  _715
REMARK  277  A    between atoms: _715  and  _716
REMARK  278  A    between atoms: _719  and  _721
REMARK  279  A    between atoms: _721  and  _722
REMARK  280  A    between atoms: _725  and  _727
REMARK  281  A    between atoms: _727  and  _728
REMARK  282  A    between atoms: _727  and  _730
REMARK  283  A    between atoms: _730  and  _731
REMARK  284  A    between atoms: _731  and  _732
REMARK  285  A    between atoms: _735  and  _737
REMARK  286  A    between atoms: _737  and  _738
REMARK  287  A    between atoms: _737  and  _740
REMARK  288  A    between atoms: _740  and  _741
REMARK  289  A    between atoms: _746  and  _747
REMARK  290  A    between atoms: _749  and  _751
REMARK  291  A    between atoms: _751  and  _752
REMARK  292  A    between atoms: _751  and  _754
REMARK  293  A    between atoms: _754  and  _755
REMARK  294  A    between atoms: _760  and  _761
REMARK  295  A    between atoms: _763  and  _765
REMARK  296  A    between atoms: _765  and  _766
REMARK  297  A    between atoms: _765  and  _768
REMARK  298  A    between atoms: _768  and  _769
REMARK  299  A    between atoms: _769  and  _770
REMARK  300  A    between atoms: _770  and  _771
REMARK  301  A    between atoms: _780  and  _782
REMARK  302  A    between atoms: _782  and  _783
REMARK  303  A    between atoms: _786  and  _788
REMARK  304  A    between atoms: _788  and  _789
REMARK  305  A    between atoms: _788  and  _791
REMARK  306  A    between atoms: _791  and  _792
REMARK  307  A    between atoms: _797  and  _798
REMARK  308  A    between atoms: _800  and  _802
REMARK  309  A    between atoms: _802  and  _803
REMARK  310  A    between atoms: _802  and  _805
REMARK  311  A    between atoms: _805  and  _806
REMARK  312  A    between atoms: _809  and  _811
REMARK  313  A    between atoms: _811  and  _812
REMARK  314  A    between atoms: _811  and  _814
REMARK  315  A    between atoms: _814  and  _815
REMARK  316  A    between atoms: _815  and  _816
REMARK  317  A    between atoms: _819  and  _821
REMARK  318  A    between atoms: _821  and  _822
REMARK  319  A    between atoms: _821  and  _824
REMARK  320  A    between atoms: _826  and  _828
REMARK  321  A    between atoms: _828  and  _829
REMARK  322  A    between atoms: _828  and  _831
REMARK  323  A    between atoms: _834  and  _836
REMARK  324  A    between atoms: _836  and  _837
REMARK  325  A    between atoms: _836  and  _839
REMARK  326  A    between atoms: _839  and  _840
REMARK  327  A    between atoms: _840  and  _841
REMARK  328  A    between atoms: _844  and  _846
REMARK  329  A    between atoms: _846  and  _847
REMARK  330  A    between atoms: _846  and  _849
REMARK  331  A    between atoms: _849  and  _850
REMARK  332  A    between atoms: _860  and  _862
REMARK  333  A    between atoms: _862  and  _863
REMARK  334  A    between atoms: _862  and  _865
REMARK  335  A    between atoms: _865  and  _866
REMARK  336  A    between atoms: _869  and  _871
REMARK  337  A    between atoms: _871  and  _872
REMARK  338  A    between atoms: _871  and  _874
REMARK  339  A    between atoms: _874  and  _875
REMARK  340  A    between atoms: _875  and  _876
REMARK  341  A    between atoms: _876  and  _877
REMARK  342  A    between atoms: _886  and  _888
REMARK  343  A    between atoms: _888  and  _889
REMARK  344  A    between atoms: _888  and  _891
REMARK  345  A    between atoms: _891  and  _892
REMARK  346  A    between atoms: _897  and  _898
REMARK                            x       y       z     vdW  Elec       q    Type
REMARK                         _______ _______ _______ _____ _____    ______ ____
ROOT
ATOM      1  CA  GLN A   2      -3.554 -12.063   0.895  0.00  0.00    +0.149 C 
ENDROOT
BRANCH   1   3
ATOM      2  C   LEU A   1      -3.452 -13.639   2.737  0.00  0.00    +0.238 C 
ATOM      3  N   GLN A   2      -3.394 -12.382   2.310  0.00  0.00    -0.297 N 
ATOM      4  H   GLN A   2      -3.232 -11.615   2.994  0.00  0.00    +0.150 HD
ATOM      5  O   LEU A   1      -3.650 -14.593   1.985  0.00  0.00    -0.274 OA
BRANCH   2   6
ATOM      6  CA  LEU A   1      -3.291 -13.853   4.232  0.00  0.00    +0.145 C 
BRANCH   6   7
ATOM      7  N   LEU A   1      -4.475 -14.604   4.616  0.00  0.00    -0.238 NA
ATOM      8  H   LEU A   1      -4.541 -15.609   4.357  0.00  0.00    +0.142 HD
ENDBRANCH   6   7
BRANCH   6   9
ATOM      9  CB  LEU A   1      -2.014 -14.648   4.524  0.00  0.00    +0.026 C 
BRANCH   9  10
ATOM     10  CG  LEU A   1      -0.676 -14.085   4.005  0.00  0.00    +0.002 C 
ATOM     11  CD2 LEU A   1      -0.426 -12.680   4.532  0.00  0.00    +0.000 C 
ATOM     12  CD1 LEU A   1       0.454 -15.016   4.452  0.00  0.00    +0.000 C 
ENDBRANCH   9  10
ENDBRANCH   6   9
ENDBRANCH   2   6
ENDBRANCH   1   3
BRANCH   1  13
ATOM     13  C   GLN A   2      -2.350 -11.367   0.310  0.00  0.00    +0.241 C 
ATOM     14  O   GLN A   2      -1.573 -10.726   1.016  0.00  0.00    -0.273 OA
ATOM     15  N   ARG A   3      -2.241 -11.460  -1.007  0.00  0.00    -0.298 N 
ATOM     16  H   ARG A   3      -2.956 -12.001  -1.534  0.00  0.00    +0.150 HD
BRANCH  15  17
ATOM     17  CA  ARG A   3      -1.155 -10.830  -1.739  0.00  0.00    +0.137 C 
BRANCH  17  18
ATOM     18  C   ARG A   3      -1.655 -10.366  -3.087  0.00  0.00    +0.227 C 
ATOM     19  O   ARG A   3      -2.430 -11.057  -3.749  0.00  0.00    -0.286 OA
ENDBRANCH  17  18
BRANCH  17  20
ATOM     20  CB  ARG A   3      -0.012 -11.818  -1.976  0.00  0.00    +0.031 C 
BRANCH  20  21
ATOM     21  CG  ARG A   3       1.120 -11.264  -2.847  0.00  0.00    +0.045 C 
BRANCH  21  22
ATOM     22  CD  ARG A   3       2.006 -12.398  -3.370  0.00  0.00    +0.174 C 
BRANCH  22  23
ATOM     23  NE  ARG A   3       3.243 -11.913  -3.949  0.00  0.00    -0.265 N 
ATOM     24  HE  ARG A   3       3.505 -10.923  -3.765  0.00  0.00    +0.259 HD
ATOM     25  CZ  ARG A   3       4.067 -12.639  -4.697  0.00  0.00    +0.342 C 
ATOM     26  NH2 ARG A   3       3.787 -13.908  -4.974  0.00  0.00    -0.292 N 
ATOM     27 HH21 ARG A   3       2.917 -14.341  -4.604  0.00  0.00    +0.255 HD
ATOM     28 HH22 ARG A   3       4.438 -14.468  -5.560  0.00  0.00    +0.255 HD
ATOM     29  NH1 ARG A   3       5.178 -12.083  -5.167  0.00  0.00    -0.292 N 
ATOM     30 HH11 ARG A   3       5.395 -11.090  -4.948  0.00  0.00    +0.255 HD
ATOM     31 HH12 ARG A   3       5.831 -12.641  -5.754  0.00  0.00    +0.255 HD
ENDBRANCH  22  23
ENDBRANCH  21  22
ENDBRANCH  20  21
ENDBRANCH  17  20
ENDBRANCH  15  17
ENDBRANCH   1  13
BRANCH   1  32
ATOM     32  CB  GLN A   2      -4.733 -11.136   0.677  0.00  0.00    +0.039 C 
BRANCH  32  33
ATOM     33  CG  GLN A   2      -6.081 -11.706   0.900  0.00  0.00    +0.087 C 
BRANCH  33  34
ATOM     34  CD  GLN A   2      -7.132 -10.701   0.503  0.00  0.00    +0.219 C 
ATOM     35  NE2 GLN A   2      -7.985 -10.328   1.449  0.00  0.00    -0.329 N 
ATOM     36 HE21 GLN A   2      -7.915 -10.736   2.403  0.00  0.00    +0.145 HD
ATOM     37 HE22 GLN A   2      -8.724  -9.627   1.236  0.00  0.00    +0.145 HD
ATOM     38  OE1 GLN A   2      -7.167 -10.250  -0.648  0.00  0.00    -0.275 OA
ENDBRANCH  33  34
ENDBRANCH  32  33
ENDBRANCH   1  32
TORSDOF 15
REMARK  Name = ../refined-set-2016/3ery/3ery_pocket.pdb
REMARK  346 active torsions:
REMARK  status: ('A' for Active; 'I' for Inactive)
REMARK    1  A    between atoms: _1  and  _3
REMARK    2  A    between atoms: _3  and  _4
REMARK    3  A    between atoms: _3  and  _6
REMARK    4  A    between atoms: _6  and  _7
REMARK    5  A    between atoms: _7  and  _8
REMARK    6  A    between atoms: _10  and  _12
REMARK    7  A    between atoms: _12  and  _13
REMARK    8  A    between atoms: _12  and  _15
REMARK    9  A    between atoms: _15  and  _16
REMARK   10  A    between atoms: _16  and  _17
REMARK   11  A    between atoms: _17  and  _18
REMARK   12  A    between atoms: _27  and  _29
REMARK   13  A    between atoms: _29  and  _30
REMARK   14  A    between atoms: _29  and  _32
REMARK   15  A    between atoms: _32  and  _33
REMARK   16  A    between atoms: _38  and  _39
REMARK   17  A    between atoms: _41  and  _43
REMARK   18  A    between atoms: _43  and  _44
REMARK   19  A    between atoms: _43  and  _46
REMARK   20  A    between atoms: _46  and  _47
REMARK   21  A    between atoms: _52  and  _53
REMARK   22  A    between atoms: _55  and  _57
REMARK   23  A    between atoms: _57  and  _58
REMARK   24  A    between atoms: _57  and  _60
REMARK   25  A    between atoms: _60  and  _61
REMARK   26  A    between atoms: _61  and  _62
REMARK   27  A    between atoms: _65  and  _67
REMARK   28  A    between atoms: _67  and  _68
REMARK   29  A    between atoms: _67  and  _70
REMARK   30  A    between atoms: _70  and  _71
REMARK   31  A    between atoms: _76  and  _77
REMARK   32  A    between atoms: _79  and  _81
REMARK   33  A    between atoms: _81  and  _82
REMARK   34  A    between atoms: _81  and  _84
REMARK   35  A    between atoms: _84  and  _85
REMARK   36  A    between atoms: _87  and  _89
REMARK   37  A    between atoms: _89  and  _90
REMARK   38  A    between atoms: _89  and  _92
REMARK   39  A    between atoms: _95  and  _97
REMARK   40  A    between atoms: _97  and  _98
REMARK   41  A    between atoms: _100  and  _102
REMARK   42  A    between atoms: _102  and  _103
REMARK   43  A    between atoms: _102  and  _105
REMARK   44  A    between atoms: _105  and  _106
REMARK   45  A    between atoms: _112  and  _114
REMARK   46  A    between atoms: _114  and  _115
REMARK   47  A    between atoms: _114  and  _117
REMARK   48  A    between atoms: _120  and  _122
REMARK   49  A    between atoms: _122  and  _123
REMARK   50  A    between atoms: _122  and  _125
REMARK   51  A    between atoms: _125  and  _126
REMARK   52  A    between atoms: _132  and  _134
REMARK   53  A    between atoms: _134  and  _135
REMARK   54  A    between atoms: _134  and  _137
REMARK   55  A    between atoms: _137  and  _138
REMARK   56  A    between atoms: _143  and  _144
REMARK   57  A    between atoms: _146  and  _148
REMARK   58  A    between atoms: _148  and  _149
REMARK   59  A    between atoms: _148  and  _151
REMARK   60  A    between atoms: _151  and  _152
REMARK   61  A    between atoms: _152  and  _153
REMARK   62  A    between atoms: _156  and  _158
REMARK   63  A    between atoms: _158  and  _159
REMARK   64  A    between atoms: _158  and  _161
REMARK   65  A    between atoms: _161  and  _162
REMARK   66  A    between atoms: _162  and  _163
REMARK   67  A    between atoms: _166  and  _168
REMARK   68  A    between atoms: _168  and  _169
REMARK   69  A    between atoms: _168  and  _171
REMARK   70  A    between atoms: _171  and  _172
REMARK   71  A    between atoms: _177  and  _178
REMARK   72  A    between atoms: _180  and  _182
REMARK   73  A    between atoms: _182  and  _183
REMARK   74  A    between atoms: _182  and  _185
REMARK   75  A    between atoms: _185  and  _186
REMARK   76  A    between atoms: _196  and  _198
REMARK   77  A    between atoms: _198  and  _199
REMARK   78  A    between atoms: _198  and  _201
REMARK   79  A    between atoms: _201  and  _202
REMARK   80  A    between atoms: _202  and  _203
REMARK   81  A    between atoms: _206  and  _208
REMARK   82  A    between atoms: _208  and  _209
REMARK   83  A    between atoms: _208  and  _211
REMARK   84  A    between atoms: _211  and  _212
REMARK   85  A    between atoms: _212  and  _213
REMARK   86  A    between atoms: _213  and  _214
REMARK   87  A    between atoms: _223  and  _225
REMARK   88  A    between atoms: _225  and  _226
REMARK   89  A    between atoms: _225  and  _228
REMARK   90  A    between atoms: _228  and  _229
REMARK   91  A    between atoms: _232  and  _234
REMARK   92  A    between atoms: _234  and  _235
REMARK   93  A    between atoms: _234  and  _237
REMARK   94  A    between atoms: _237  and  _238
REMARK   95  A    between atoms: _241  and  _243
REMARK   96  A    between atoms: _243  and  _244
REMARK   97  A    between atoms: _243  and  _246
REMARK   98  A    between atoms: _246  and  _247
REMARK   99  A    between atoms: _247  and  _248
REMARK  100  A    between atoms: _253  and  _255
REMARK  101  A    between atoms: _255  and  _256
REMARK  102  A    between atoms: _255  and  _258
REMARK  103  A    between atoms: _261  and  _263
REMARK  104  A    between atoms: _263  and  _264
REMARK  105  A    between atoms: _267  and  _269
REMARK  106  A    between atoms: _269  and  _270
REMARK  107  A    between atoms: _269  and  _272
REMARK  108  A    between atoms: _272  and  _273
REMARK  109  A    between atoms: _273  and  _274
REMARK  110  A    between atoms: _274  and  _275
REMARK  111  A    between atoms: _275  and  _276
REMARK  112  A    between atoms: _280  and  _282
REMARK  113  A    between atoms: _282  and  _283
REMARK  114  A    between atoms: _285  and  _287
REMARK  115  A    between atoms: _287  and  _288
REMARK  116  A    between atoms: _287  and  _290
REMARK  117  A    between atoms: _290  and  _291
REMARK  118  A    between atoms: _291  and  _292
REMARK  119  A    between atoms: _297  and  _299
REMARK  120  A    between atoms: _299  and  _300
REMARK  121  A    between atoms: _299  and  _302
REMARK  122  A    between atoms: _302  and  _303
REMARK  123  A    between atoms: _303  and  _304
REMARK  124  A    between atoms: _309  and  _311
REMARK  125  A    between atoms: _311  and  _312
REMARK  126  A    between atoms: _311  and  _314
REMARK  127  A    between atoms: _314  and  _315
REMARK  128  A    between atoms: _325  and  _327
REMARK  129  A    between atoms: _327  and  _328
REMARK  130  A    between atoms: _327  and  _330
REMARK  131  A    between atoms: _330  and  _331
REMARK  132  A    between atoms: _337  and  _339
REMARK  133  A    between atoms: _339  and  _340
REMARK  134  A    between atoms: _339  and  _342
REMARK  135  A    between atoms: _345  and  _347
REMARK  136  A    between atoms: _347  and  _348
REMARK  137  A    between atoms: _347  and  _350
REMARK  138  A    between atoms: _350  and  _351
REMARK  139  A    between atoms: _356  and  _358
REMARK  140  A    between atoms: _358  and  _359
REMARK  141  A    between atoms: _358  and  _361
REMARK  142  A    between atoms: _361  and  _362
REMARK  143  A    between atoms: _365  and  _367
REMARK  144  A    between atoms: _367  and  _368
REMARK  145  A    between atoms: _367  and  _370
REMARK  146  A    between atoms: _370  and  _371
REMARK  147  A    between atoms: _371  and  _372
REMARK  148  A    between atoms: _372  and  _373
REMARK  149  A    between atoms: _382  and  _384
REMARK  150  A    between atoms: _384  and  _385
REMARK  151  A    between atoms: _384  and  _387
REMARK  152  A    between atoms: _387  and  _388
REMARK  153  A    between atoms: _391  and  _393
REMARK  154  A    between atoms: _393  and  _394
REMARK  155  A    between atoms: _393  and  _396
REMARK  156  A    between atoms: _396  and  _397
REMARK  157  A    between atoms: _400  and  _402
REMARK  158  A    between atoms: _402  and  _403
REMARK  159  A    between atoms: _402  and  _405
REMARK  160  A    between atoms: _405  and  _406
REMARK  161  A    between atoms: _409  and  _411
REMARK  162  A    between atoms: _411  and  _412
REMARK  163  A    between atoms: _411  and  _414
REMARK  164  A    between atoms: _414  and  _415
REMARK  165  A    between atoms: _420  and  _421
REMARK  166  A    between atoms: _423  and  _425
REMARK  167  A    between atoms: _425  and  _426
REMARK  168  A    between atoms: _425  and  _428
REMARK  169  A    between atoms: _428  and  _429
REMARK  170  A    between atoms: _432  and  _434
REMARK  171  A    between atoms: _434  and  _435
REMARK  172  A    between atoms: _434  and  _437
REMARK  173  A    between atoms: _437  and  _438
REMARK  174  A    between atoms: _438  and  _439
REMARK  175  A    between atoms: _444  and  _446
REMARK  176  A    between atoms: _446  and  _447
REMARK  177  A    between atoms: _446  and  _449
REMARK  178  A    between atoms: _449  and  _450
REMARK  179  A    between atoms: _450  and  _451
REMARK  180  A    between atoms: _451  and  _452
REMARK  181  A    between atoms: _461  and  _463
REMARK  182  A    between atoms: _463  and  _464
REMARK  183  A    between atoms: _463  and  _466
REMARK  184  A    between atoms: _466  and  _467
REMARK  185  A    between atoms: _472  and  _473
REMARK  186  A    between atoms: _475  and  _477
REMARK  187  A    between atoms: _477  and  _478
REMARK  188  A    between atoms: _480  and  _482
REMARK  189  A    between atoms: _482  and  _483
REMARK  190  A    between atoms: _482  and  _485
REMARK  191  A    between atoms: _485  and  _486
REMARK  192  A    between atoms: _491  and  _492
REMARK  193  A    between atoms: _494  and  _496
REMARK  194  A    between atoms: _496  and  _497
REMARK  195  A    between atoms: _496  and  _499
REMARK  196  A    between atoms: _499  and  _500
REMARK  197  A    between atoms: _500  and  _501
REMARK  198  A    between atoms: _504  and  _506
REMARK  199  A    between atoms: _506  and  _507
REMARK  200  A    between atoms: _506  and  _509
REMARK  201  A    between atoms: _509  and  _510
REMARK  202  A    between atoms: _516  and  _518
REMARK  203  A    between atoms: _518  and  _519
REMARK  204  A    between atoms: _522  and  _524
REMARK  205  A    between atoms: _524  and  _525
REMARK  206  A    between atoms: _524  and  _527
REMARK  207  A    between atoms: _527  and  _528
REMARK  208  A    between atoms: _533  and  _534
REMARK  209  A    between atoms: _536  and  _538
REMARK  210  A    between atoms: _538  and  _539
REMARK  211  A    between atoms: _538  and  _541
REMARK  212  A    between atoms: _541  and  _542
REMARK  213  A    between atoms: _547  and  _548
REMARK  214  A    between atoms: _550  and  _552
REMARK  215  A    between atoms: _552  and  _553
REMARK  216  A    between atoms: _552  and  _555
REMARK  217  A    between atoms: _555  and  _556
REMARK  218  A    between atoms: _559  and  _561
REMARK  219  A    between atoms: _561  and  _562
REMARK  220  A    between atoms: _561  and  _564
REMARK  221  A    between atoms: _564  and  _565
REMARK  222  A    between atoms: _575  and  _577
REMARK  223  A    between atoms: _577  and  _578
REMARK  224  A    between atoms: _581  and  _583
REMARK  225  A    between atoms: _583  and  _584
REMARK  226  A    between atoms: _587  and  _589
REMARK  227  A    between atoms: _589  and  _590
REMARK  228  A    between atoms: _589  and  _592
REMARK  229  A    between atoms: _592  and  _593
REMARK  230  A    between atoms: _593  and  _594
REMARK  231  A    between atoms: _599  and  _601
REMARK  232  A    between atoms: _601  and  _602
REMARK  233  A    between atoms: _601  and  _604
REMARK  234  A    between atoms: _604  and  _605
REMARK  235  A    between atoms: _608  and  _610
REMARK  236  A    between atoms: _610  and  _611
REMARK  237  A    between atoms: _610  and  _613
REMARK  238  A    between atoms: _613  and  _614
REMARK  239  A    between atoms: _617  and  _619
REMARK  240  A    between atoms: _619  and  _620
REMARK  241  A    between atoms: _619  and  _622
REMARK  242  A    between atoms: _622  and  _623
REMARK  243  A    between atoms: _623  and  _624
REMARK  244  A    between atoms: _624  and  _625
REMARK  245  A    between atoms: _634  and  _636
REMARK  246  A    between atoms: _636  and  _637
REMARK  247  A    between atoms: _636  and  _639
REMARK  248  A    between atoms: _639  and  _640
REMARK  249  A    between atoms: _640  and  _641
REMARK  250  A    between atoms: _641  and  _642
REMARK  251  A    between atoms: _651  and  _653
REMARK  252  A    between atoms: _653  and  _654
REMARK  253  A    between atoms: _653  and  _656
REMARK  254  A    between atoms: _656  and  _657
REMARK  255  A    between atoms: _657  and  _658
REMARK  256  A    between atoms: _658  and  _659
REMARK  257  A    between atoms: _659  and  _660
REMARK  258  A    between atoms: _664  and  _666
REMARK  259  A    between atoms: _666  and  _667
REMARK  260  A    between atoms: _666  and  _669
REMARK  261  A    between atoms: _669  and  _670
REMARK  262  A    between atoms: _680  and  _682
REMARK  263  A    between atoms: _682  and  _683
REMARK  264  A    between atoms: _682  and  _685
REMARK  265  A    between atoms: _685  and  _686
REMARK  266  A    between atoms: _686  and  _687
REMARK  267  A    between atoms: _690  and  _692
REMARK  268  A    between atoms: _692  and  _693
REMARK  269  A    between atoms: _692  and  _695
REMARK  270  A    between atoms: _695  and  _696
REMARK  271  A    between atoms: _696  and  _697
REMARK  272  A    between atoms: _702  and  _704
REMARK  273  A    between atoms: _704  and  _705
REMARK  274  A    between atoms: _708  and  _710
REMARK  275  A    between atoms: _710  and  _711
REMARK  276  A    between atoms: _713  and  _715
REMARK  277  A    between atoms: _715  and  _716
REMARK  278  A    between atoms: _719  and  _721
REMARK  279  A    between atoms: _721  and  _722
REMARK  280  A    between atoms: _725  and  _727
REMARK  281  A    between atoms: _727  and  _728
REMARK  282  A    between atoms: _727  and  _730
REMARK  283  A    between atoms: _730  and  _731
REMARK  284  A    between atoms: _731  and  _732
REMARK  285  A    between atoms: _735  and  _737
REMARK  286  A    between atoms: _737  and  _738
REMARK  287  A    between atoms: _737  and  _740
REMARK  288  A    between atoms: _740  and  _741
REMARK  289  A    between atoms: _746  and  _747
REMARK  290  A    between atoms: _749  and  _751
REMARK  291  A    between atoms: _751  and  _752
REMARK  292  A    between atoms: _751  and  _754
REMARK  293  A    between atoms: _754  and  _755
REMARK  294  A    between atoms: _760  and  _761
REMARK  295  A    between atoms: _763  and  _765
REMARK  296  A    between atoms: _765  and  _766
REMARK  297  A    between atoms: _765  and  _768
REMARK  298  A    between atoms: _768  and  _769
REMARK  299  A    between atoms: _769  and  _770
REMARK  300  A    between atoms: _770  and  _771
REMARK  301  A    between atoms: _780  and  _782
REMARK  302  A    between atoms: _782  and  _783
REMARK  303  A    between atoms: _786  and  _788
REMARK  304  A    between atoms: _788  and  _789
REMARK  305  A    between atoms: _788  and  _791
REMARK  306  A    between atoms: _791  and  _792
REMARK  307  A    between atoms: _797  and  _798
REMARK  308  A    between atoms: _800  and  _802
REMARK  309  A    between atoms: _802  and  _803
REMARK  310  A    between atoms: _802  and  _805
REMARK  311  A    between atoms: _805  and  _806
REMARK  312  A    between atoms: _809  and  _811
REMARK  313  A    between atoms: _811  and  _812
REMARK  314  A    between atoms: _811  and  _814
REMARK  315  A    between atoms: _814  and  _815
REMARK  316  A    between atoms: _815  and  _816
REMARK  317  A    between atoms: _819  and  _821
REMARK  318  A    between atoms: _821  and  _822
REMARK  319  A    between atoms: _821  and  _824
REMARK  320  A    between atoms: _826  and  _828
REMARK  321  A    between atoms: _828  and  _829
REMARK  322  A    between atoms: _828  and  _831
REMARK  323  A    between atoms: _834  and  _836
REMARK  324  A    between atoms: _836  and  _837
REMARK  325  A    between atoms: _836  and  _839
REMARK  326  A    between atoms: _839  and  _840
REMARK  327  A    between atoms: _840  and  _841
REMARK  328  A    between atoms: _844  and  _846
REMARK  329  A    between atoms: _846  and  _847
REMARK  330  A    between atoms: _846  and  _849
REMARK  331  A    between atoms: _849  and  _850
REMARK  332  A    between atoms: _860  and  _862
REMARK  333  A    between atoms: _862  and  _863
REMARK  334  A    between atoms: _862  and  _865
REMARK  335  A    between atoms: _865  and  _866
REMARK  336  A    between atoms: _869  and  _871
REMARK  337  A    between atoms: _871  and  _872
REMARK  338  A    between atoms: _871  and  _874
REMARK  339  A    between atoms: _874  and  _875
REMARK  340  A    between atoms: _875  and  _876
REMARK  341  A    between atoms: _876  and  _877
REMARK  342  A    between atoms: _886  and  _888
REMARK  343  A    between atoms: _888  and  _889
REMARK  344  A    between atoms: _888  and  _891
REMARK  345  A    between atoms: _891  and  _892
REMARK  346  A    between atoms: _897  and  _898
REMARK                            x       y       z     vdW  Elec       q    Type
REMARK                         _______ _______ _______ _____ _____    ______ ____
ROOT
ATOM      1  CA  TYR A   1       1.165  -7.848  -7.284  0.00  0.00    +0.149 C 
ENDROOT
BRANCH   1   2
ATOM      2  C   TYR A   1       0.871  -7.646  -8.750  0.00  0.00    +0.239 C 
ATOM      3  O   TYR A   1      -0.006  -8.301  -9.321  0.00  0.00    -0.274 OA
ATOM      4  N   GLY A   2       1.584  -6.708  -9.354  0.00  0.00    -0.297 N 
ATOM      5  H   GLY A   2       2.289  -6.162  -8.819  0.00  0.00    +0.150 HD
BRANCH   4   6
ATOM      6  CA  GLY A   2       1.377  -6.447 -10.759  0.00  0.00    +0.163 C 
BRANCH   6   7
ATOM      7  C   GLY A   2       2.100  -5.225 -11.272  0.00  0.00    +0.229 C 
ATOM      8  O   GLY A   2       2.886  -4.591 -10.570  0.00  0.00    -0.286 OA
ENDBRANCH   6   7
ENDBRANCH   4   6
ENDBRANCH   1   2
BRANCH   1   9
ATOM      9  N   TYR A   1      -0.016  -8.378  -6.629  0.00  0.00    -0.238 NA
ATOM     10  H   TYR A   1      -0.667  -8.994  -7.157  0.00  0.00    +0.142 HD
ENDBRANCH   1   9
BRANCH   1  11
ATOM     11  CB  TYR A   1       2.376  -8.776  -7.083  0.00  0.00    +0.053 C 
BRANCH  11  12
ATOM     12  CG  TYR A   1       2.398 -10.072  -7.869  0.00  0.00    -0.020 A 
ATOM     13  CD2 TYR A   1       1.832 -11.231  -7.343  0.00  0.00    -0.001 A 
ATOM     14  CE2 TYR A   1       1.964 -12.454  -7.989  0.00  0.00    +0.036 A 
ATOM     15  CZ  TYR A   1       2.667 -12.529  -9.183  0.00  0.00    +0.134 A 
ATOM     16  CE1 TYR A   1       3.228 -11.384  -9.745  0.00  0.00    +0.036 A 
ATOM     17  CD1 TYR A   1       3.090 -10.165  -9.086  0.00  0.00    -0.001 A 
BRANCH  15  18
ATOM     18  OH  TYR A   1       2.854 -13.761  -9.780  0.00  0.00    -0.506 OA
ATOM     19  HH  TYR A   1       3.370 -13.646 -10.617  0.00  0.00    +0.292 HD
ENDBRANCH  15  18
ENDBRANCH  11  12
ENDBRANCH   1  11
TORSDOF 7
REMARK  Name = ../refined-set-2016/3ery/3ery_pocket.pdb
REMARK  346 active torsions:
REMARK  status: ('A' for Active; 'I' for Inactive)
REMARK    1  A    between atoms: _1  and  _3
REMARK    2  A    between atoms: _3  and  _4
REMARK    3  A    between atoms: _3  and  _6
REMARK    4  A    between atoms: _6  and  _7
REMARK    5  A    between atoms: _7  and  _8
REMARK    6  A    between atoms: _10  and  _12
REMARK    7  A    between atoms: _12  and  _13
REMARK    8  A    between atoms: _12  and  _15
REMARK    9  A    between atoms: _15  and  _16
REMARK   10  A    between atoms: _16  and  _17
REMARK   11  A    between atoms: _17  and  _18
REMARK   12  A    between atoms: _27  and  _29
REMARK   13  A    between atoms: _29  and  _30
REMARK   14  A    between atoms: _29  and  _32
REMARK   15  A    between atoms: _32  and  _33
REMARK   16  A    between atoms: _38  and  _39
REMARK   17  A    between atoms: _41  and  _43
REMARK   18  A    between atoms: _43  and  _44
REMARK   19  A    between atoms: _43  and  _46
REMARK   20  A    between atoms: _46  and  _47
REMARK   21  A    between atoms: _52  and  _53
REMARK   22  A    between atoms: _55  and  _57
REMARK   23  A    between atoms: _57  and  _58
REMARK   24  A    between atoms: _57  and  _60
REMARK   25  A    between atoms: _60  and  _61
REMARK   26  A    between atoms: _61  and  _62
REMARK   27  A    between atoms: _65  and  _67
REMARK   28  A    between atoms: _67  and  _68
REMARK   29  A    between atoms: _67  and  _70
REMARK   30  A    between atoms: _70  and  _71
REMARK   31  A    between atoms: _76  and  _77
REMARK   32  A    between atoms: _79  and  _81
REMARK   33  A    between atoms: _81  and  _82
REMARK   34  A    between atoms: _81  and  _84
REMARK   35  A    between atoms: _84  and  _85
REMARK   36  A    between atoms: _87  and  _89
REMARK   37  A    between atoms: _89  and  _90
REMARK   38  A    between atoms: _89  and  _92
REMARK   39  A    between atoms: _95  and  _97
REMARK   40  A    between atoms: _97  and  _98
REMARK   41  A    between atoms: _100  and  _102
REMARK   42  A    between atoms: _102  and  _103
REMARK   43  A    between atoms: _102  and  _105
REMARK   44  A    between atoms: _105  and  _106
REMARK   45  A    between atoms: _112  and  _114
REMARK   46  A    between atoms: _114  and  _115
REMARK   47  A    between atoms: _114  and  _117
REMARK   48  A    between atoms: _120  and  _122
REMARK   49  A    between atoms: _122  and  _123
REMARK   50  A    between atoms: _122  and  _125
REMARK   51  A    between atoms: _125  and  _126
REMARK   52  A    between atoms: _132  and  _134
REMARK   53  A    between atoms: _134  and  _135
REMARK   54  A    between atoms: _134  and  _137
REMARK   55  A    between atoms: _137  and  _138
REMARK   56  A    between atoms: _143  and  _144
REMARK   57  A    between atoms: _146  and  _148
REMARK   58  A    between atoms: _148  and  _149
REMARK   59  A    between atoms: _148  and  _151
REMARK   60  A    between atoms: _151  and  _152
REMARK   61  A    between atoms: _152  and  _153
REMARK   62  A    between atoms: _156  and  _158
REMARK   63  A    between atoms: _158  and  _159
REMARK   64  A    between atoms: _158  and  _161
REMARK   65  A    between atoms: _161  and  _162
REMARK   66  A    between atoms: _162  and  _163
REMARK   67  A    between atoms: _166  and  _168
REMARK   68  A    between atoms: _168  and  _169
REMARK   69  A    between atoms: _168  and  _171
REMARK   70  A    between atoms: _171  and  _172
REMARK   71  A    between atoms: _177  and  _178
REMARK   72  A    between atoms: _180  and  _182
REMARK   73  A    between atoms: _182  and  _183
REMARK   74  A    between atoms: _182  and  _185
REMARK   75  A    between atoms: _185  and  _186
REMARK   76  A    between atoms: _196  and  _198
REMARK   77  A    between atoms: _198  and  _199
REMARK   78  A    between atoms: _198  and  _201
REMARK   79  A    between atoms: _201  and  _202
REMARK   80  A    between atoms: _202  and  _203
REMARK   81  A    between atoms: _206  and  _208
REMARK   82  A    between atoms: _208  and  _209
REMARK   83  A    between atoms: _208  and  _211
REMARK   84  A    between atoms: _211  and  _212
REMARK   85  A    between atoms: _212  and  _213
REMARK   86  A    between atoms: _213  and  _214
REMARK   87  A    between atoms: _223  and  _225
REMARK   88  A    between atoms: _225  and  _226
REMARK   89  A    between atoms: _225  and  _228
REMARK   90  A    between atoms: _228  and  _229
REMARK   91  A    between atoms: _232  and  _234
REMARK   92  A    between atoms: _234  and  _235
REMARK   93  A    between atoms: _234  and  _237
REMARK   94  A    between atoms: _237  and  _238
REMARK   95  A    between atoms: _241  and  _243
REMARK   96  A    between atoms: _243  and  _244
REMARK   97  A    between atoms: _243  and  _246
REMARK   98  A    between atoms: _246  and  _247
REMARK   99  A    between atoms: _247  and  _248
REMARK  100  A    between atoms: _253  and  _255
REMARK  101  A    between atoms: _255  and  _256
REMARK  102  A    between atoms: _255  and  _258
REMARK  103  A    between atoms: _261  and  _263
REMARK  104  A    between atoms: _263  and  _264
REMARK  105  A    between atoms: _267  and  _269
REMARK  106  A    between atoms: _269  and  _270
REMARK  107  A    between atoms: _269  and  _272
REMARK  108  A    between atoms: _272  and  _273
REMARK  109  A    between atoms: _273  and  _274
REMARK  110  A    between atoms: _274  and  _275
REMARK  111  A    between atoms: _275  and  _276
REMARK  112  A    between atoms: _280  and  _282
REMARK  113  A    between atoms: _282  and  _283
REMARK  114  A    between atoms: _285  and  _287
REMARK  115  A    between atoms: _287  and  _288
REMARK  116  A    between atoms: _287  and  _290
REMARK  117  A    between atoms: _290  and  _291
REMARK  118  A    between atoms: _291  and  _292
REMARK  119  A    between atoms: _297  and  _299
REMARK  120  A    between atoms: _299  and  _300
REMARK  121  A    between atoms: _299  and  _302
REMARK  122  A    between atoms: _302  and  _303
REMARK  123  A    between atoms: _303  and  _304
REMARK  124  A    between atoms: _309  and  _311
REMARK  125  A    between atoms: _311  and  _312
REMARK  126  A    between atoms: _311  and  _314
REMARK  127  A    between atoms: _314  and  _315
REMARK  128  A    between atoms: _325  and  _327
REMARK  129  A    between atoms: _327  and  _328
REMARK  130  A    between atoms: _327  and  _330
REMARK  131  A    between atoms: _330  and  _331
REMARK  132  A    between atoms: _337  and  _339
REMARK  133  A    between atoms: _339  and  _340
REMARK  134  A    between atoms: _339  and  _342
REMARK  135  A    between atoms: _345  and  _347
REMARK  136  A    between atoms: _347  and  _348
REMARK  137  A    between atoms: _347  and  _350
REMARK  138  A    between atoms: _350  and  _351
REMARK  139  A    between atoms: _356  and  _358
REMARK  140  A    between atoms: _358  and  _359
REMARK  141  A    between atoms: _358  and  _361
REMARK  142  A    between atoms: _361  and  _362
REMARK  143  A    between atoms: _365  and  _367
REMARK  144  A    between atoms: _367  and  _368
REMARK  145  A    between atoms: _367  and  _370
REMARK  146  A    between atoms: _370  and  _371
REMARK  147  A    between atoms: _371  and  _372
REMARK  148  A    between atoms: _372  and  _373
REMARK  149  A    between atoms: _382  and  _384
REMARK  150  A    between atoms: _384  and  _385
REMARK  151  A    between atoms: _384  and  _387
REMARK  152  A    between atoms: _387  and  _388
REMARK  153  A    between atoms: _391  and  _393
REMARK  154  A    between atoms: _393  and  _394
REMARK  155  A    between atoms: _393  and  _396
REMARK  156  A    between atoms: _396  and  _397
REMARK  157  A    between atoms: _400  and  _402
REMARK  158  A    between atoms: _402  and  _403
REMARK  159  A    between atoms: _402  and  _405
REMARK  160  A    between atoms: _405  and  _406
REMARK  161  A    between atoms: _409  and  _411
REMARK  162  A    between atoms: _411  and  _412
REMARK  163  A    between atoms: _411  and  _414
REMARK  164  A    between atoms: _414  and  _415
REMARK  165  A    between atoms: _420  and  _421
REMARK  166  A    between atoms: _423  and  _425
REMARK  167  A    between atoms: _425  and  _426
REMARK  168  A    between atoms: _425  and  _428
REMARK  169  A    between atoms: _428  and  _429
REMARK  170  A    between atoms: _432  and  _434
REMARK  171  A    between atoms: _434  and  _435
REMARK  172  A    between atoms: _434  and  _437
REMARK  173  A    between atoms: _437  and  _438
REMARK  174  A    between atoms: _438  and  _439
REMARK  175  A    between atoms: _444  and  _446
REMARK  176  A    between atoms: _446  and  _447
REMARK  177  A    between atoms: _446  and  _449
REMARK  178  A    between atoms: _449  and  _450
REMARK  179  A    between atoms: _450  and  _451
REMARK  180  A    between atoms: _451  and  _452
REMARK  181  A    between atoms: _461  and  _463
REMARK  182  A    between atoms: _463  and  _464
REMARK  183  A    between atoms: _463  and  _466
REMARK  184  A    between atoms: _466  and  _467
REMARK  185  A    between atoms: _472  and  _473
REMARK  186  A    between atoms: _475  and  _477
REMARK  187  A    between atoms: _477  and  _478
REMARK  188  A    between atoms: _480  and  _482
REMARK  189  A    between atoms: _482  and  _483
REMARK  190  A    between atoms: _482  and  _485
REMARK  191  A    between atoms: _485  and  _486
REMARK  192  A    between atoms: _491  and  _492
REMARK  193  A    between atoms: _494  and  _496
REMARK  194  A    between atoms: _496  and  _497
REMARK  195  A    between atoms: _496  and  _499
REMARK  196  A    between atoms: _499  and  _500
REMARK  197  A    between atoms: _500  and  _501
REMARK  198  A    between atoms: _504  and  _506
REMARK  199  A    between atoms: _506  and  _507
REMARK  200  A    between atoms: _506  and  _509
REMARK  201  A    between atoms: _509  and  _510
REMARK  202  A    between atoms: _516  and  _518
REMARK  203  A    between atoms: _518  and  _519
REMARK  204  A    between atoms: _522  and  _524
REMARK  205  A    between atoms: _524  and  _525
REMARK  206  A    between atoms: _524  and  _527
REMARK  207  A    between atoms: _527  and  _528
REMARK  208  A    between atoms: _533  and  _534
REMARK  209  A    between atoms: _536  and  _538
REMARK  210  A    between atoms: _538  and  _539
REMARK  211  A    between atoms: _538  and  _541
REMARK  212  A    between atoms: _541  and  _542
REMARK  213  A    between atoms: _547  and  _548
REMARK  214  A    between atoms: _550  and  _552
REMARK  215  A    between atoms: _552  and  _553
REMARK  216  A    between atoms: _552  and  _555
REMARK  217  A    between atoms: _555  and  _556
REMARK  218  A    between atoms: _559  and  _561
REMARK  219  A    between atoms: _561  and  _562
REMARK  220  A    between atoms: _561  and  _564
REMARK  221  A    between atoms: _564  and  _565
REMARK  222  A    between atoms: _575  and  _577
REMARK  223  A    between atoms: _577  and  _578
REMARK  224  A    between atoms: _581  and  _583
REMARK  225  A    between atoms: _583  and  _584
REMARK  226  A    between atoms: _587  and  _589
REMARK  227  A    between atoms: _589  and  _590
REMARK  228  A    between atoms: _589  and  _592
REMARK  229  A    between atoms: _592  and  _593
REMARK  230  A    between atoms: _593  and  _594
REMARK  231  A    between atoms: _599  and  _601
REMARK  232  A    between atoms: _601  and  _602
REMARK  233  A    between atoms: _601  and  _604
REMARK  234  A    between atoms: _604  and  _605
REMARK  235  A    between atoms: _608  and  _610
REMARK  236  A    between atoms: _610  and  _611
REMARK  237  A    between atoms: _610  and  _613
REMARK  238  A    between atoms: _613  and  _614
REMARK  239  A    between atoms: _617  and  _619
REMARK  240  A    between atoms: _619  and  _620
REMARK  241  A    between atoms: _619  and  _622
REMARK  242  A    between atoms: _622  and  _623
REMARK  243  A    between atoms: _623  and  _624
REMARK  244  A    between atoms: _624  and  _625
REMARK  245  A    between atoms: _634  and  _636
REMARK  246  A    between atoms: _636  and  _637
REMARK  247  A    between atoms: _636  and  _639
REMARK  248  A    between atoms: _639  and  _640
REMARK  249  A    between atoms: _640  and  _641
REMARK  250  A    between atoms: _641  and  _642
REMARK  251  A    between atoms: _651  and  _653
REMARK  252  A    between atoms: _653  and  _654
REMARK  253  A    between atoms: _653  and  _656
REMARK  254  A    between atoms: _656  and  _657
REMARK  255  A    between atoms: _657  and  _658
REMARK  256  A    between atoms: _658  and  _659
REMARK  257  A    between atoms: _659  and  _660
REMARK  258  A    between atoms: _664  and  _666
REMARK  259  A    between atoms: _666  and  _667
REMARK  260  A    between atoms: _666  and  _669
REMARK  261  A    between atoms: _669  and  _670
REMARK  262  A    between atoms: _680  and  _682
REMARK  263  A    between atoms: _682  and  _683
REMARK  264  A    between atoms: _682  and  _685
REMARK  265  A    between atoms: _685  and  _686
REMARK  266  A    between atoms: _686  and  _687
REMARK  267  A    between atoms: _690  and  _692
REMARK  268  A    between atoms: _692  and  _693
REMARK  269  A    between atoms: _692  and  _695
REMARK  270  A    between atoms: _695  and  _696
REMARK  271  A    between atoms: _696  and  _697
REMARK  272  A    between atoms: _702  and  _704
REMARK  273  A    between atoms: _704  and  _705
REMARK  274  A    between atoms: _708  and  _710
REMARK  275  A    between atoms: _710  and  _711
REMARK  276  A    between atoms: _713  and  _715
REMARK  277  A    between atoms: _715  and  _716
REMARK  278  A    between atoms: _719  and  _721
REMARK  279  A    between atoms: _721  and  _722
REMARK  280  A    between atoms: _725  and  _727
REMARK  281  A    between atoms: _727  and  _728
REMARK  282  A    between atoms: _727  and  _730
REMARK  283  A    between atoms: _730  and  _731
REMARK  284  A    between atoms: _731  and  _732
REMARK  285  A    between atoms: _735  and  _737
REMARK  286  A    between atoms: _737  and  _738
REMARK  287  A    between atoms: _737  and  _740
REMARK  288  A    between atoms: _740  and  _741
REMARK  289  A    between atoms: _746  and  _747
REMARK  290  A    between atoms: _749  and  _751
REMARK  291  A    between atoms: _751  and  _752
REMARK  292  A    between atoms: _751  and  _754
REMARK  293  A    between atoms: _754  and  _755
REMARK  294  A    between atoms: _760  and  _761
REMARK  295  A    between atoms: _763  and  _765
REMARK  296  A    between atoms: _765  and  _766
REMARK  297  A    between atoms: _765  and  _768
REMARK  298  A    between atoms: _768  and  _769
REMARK  299  A    between atoms: _769  and  _770
REMARK  300  A    between atoms: _770  and  _771
REMARK  301  A    between atoms: _780  and  _782
REMARK  302  A    between atoms: _782  and  _783
REMARK  303  A    between atoms: _786  and  _788
REMARK  304  A    between atoms: _788  and  _789
REMARK  305  A    between atoms: _788  and  _791
REMARK  306  A    between atoms: _791  and  _792
REMARK  307  A    between atoms: _797  and  _798
REMARK  308  A    between atoms: _800  and  _802
REMARK  309  A    between atoms: _802  and  _803
REMARK  310  A    between atoms: _802  and  _805
REMARK  311  A    between atoms: _805  and  _806
REMARK  312  A    between atoms: _809  and  _811
REMARK  313  A    between atoms: _811  and  _812
REMARK  314  A    between atoms: _811  and  _814
REMARK  315  A    between atoms: _814  and  _815
REMARK  316  A    between atoms: _815  and  _816
REMARK  317  A    between atoms: _819  and  _821
REMARK  318  A    between atoms: _821  and  _822
REMARK  319  A    between atoms: _821  and  _824
REMARK  320  A    between atoms: _826  and  _828
REMARK  321  A    between atoms: _828  and  _829
REMARK  322  A    between atoms: _828  and  _831
REMARK  323  A    between atoms: _834  and  _836
REMARK  324  A    between atoms: _836  and  _837
REMARK  325  A    between atoms: _836  and  _839
REMARK  326  A    between atoms: _839  and  _840
REMARK  327  A    between atoms: _840  and  _841
REMARK  328  A    between atoms: _844  and  _846
REMARK  329  A    between atoms: _846  and  _847
REMARK  330  A    between atoms: _846  and  _849
REMARK  331  A    between atoms: _849  and  _850
REMARK  332  A    between atoms: _860  and  _862
REMARK  333  A    between atoms: _862  and  _863
REMARK  334  A    between atoms: _862  and  _865
REMARK  335  A    between atoms: _865  and  _866
REMARK  336  A    between atoms: _869  and  _871
REMARK  337  A    between atoms: _871  and  _872
REMARK  338  A    between atoms: _871  and  _874
REMARK  339  A    between atoms: _874  and  _875
REMARK  340  A    between atoms: _875  and  _876
REMARK  341  A    between atoms: _876  and  _877
REMARK  342  A    between atoms: _886  and  _888
REMARK  343  A    between atoms: _888  and  _889
REMARK  344  A    between atoms: _888  and  _891
REMARK  345  A    between atoms: _891  and  _892
REMARK  346  A    between atoms: _897  and  _898
REMARK                            x       y       z     vdW  Elec       q    Type
REMARK                         _______ _______ _______ _____ _____    ______ ____
ROOT
ATOM      1  CA  TYR A   1       2.490  -3.252  -6.929  0.00  0.00    +0.149 C 
ENDROOT
BRANCH   1   2
ATOM      2  C   TYR A   1       3.055  -4.527  -6.320  0.00  0.00    +0.239 C 
ATOM      3  N   GLU A   2       3.137  -4.550  -4.997  0.00  0.00    -0.298 N 
ATOM      4  H   GLU A   2       2.848  -3.706  -4.463  0.00  0.00    +0.150 HD
ATOM      5  O   TYR A   1       3.396  -5.472  -7.031  0.00  0.00    -0.274 OA
BRANCH   3   6
ATOM      6  CA  GLU A   2       3.618  -5.715  -4.260  0.00  0.00    +0.137 C 
BRANCH   6   7
ATOM      7  C   GLU A   2       3.134  -5.472  -2.843  0.00  0.00    +0.227 C 
ATOM      8  O   GLU A   2       3.856  -4.910  -2.028  0.00  0.00    -0.286 OA
ENDBRANCH   6   7
BRANCH   6   9
ATOM      9  CB  GLU A   2       5.146  -5.794  -4.296  0.00  0.00    +0.039 C 
BRANCH   9  10
ATOM     10  CG  GLU A   2       5.728  -6.956  -3.486  0.00  0.00    +0.116 C 
BRANCH  10  11
ATOM     11  CD  GLU A   2       5.259  -8.320  -3.968  0.00  0.00    +0.365 C 
ATOM     12  OE2 GLU A   2       5.575  -9.336  -3.308  0.00  0.00    -0.246 OA
ATOM     13  OE1 GLU A   2       4.574  -8.386  -5.010  0.00  0.00    -0.246 OA
ENDBRANCH  10  11
ENDBRANCH   9  10
ENDBRANCH   6   9
ENDBRANCH   3   6
ENDBRANCH   1   2
BRANCH   1  14
ATOM     14  N   TYR A   1       3.197  -2.890  -8.150  0.00  0.00    -0.238 NA
ATOM     15  H   TYR A   1       3.320  -3.604  -8.897  0.00  0.00    +0.142 HD
ENDBRANCH   1  14
BRANCH   1  16
ATOM     16  CB  TYR A   1       1.003  -3.478  -7.223  0.00  0.00    +0.053 C 
BRANCH  16  17
ATOM     17  CG  TYR A   1       0.309  -2.326  -7.907  0.00  0.00    -0.020 A 
ATOM     18  CD2 TYR A   1      -0.202  -1.257  -7.173  0.00  0.00    -0.001 A 
ATOM     19  CE2 TYR A   1      -0.819  -0.179  -7.807  0.00  0.00    +0.036 A 
ATOM     20  CZ  TYR A   1      -0.925  -0.169  -9.191  0.00  0.00    +0.134 A 
ATOM     21  CE1 TYR A   1      -0.426  -1.225  -9.935  0.00  0.00    +0.036 A 
ATOM     22  CD1 TYR A   1       0.185  -2.294  -9.292  0.00  0.00    -0.001 A 
BRANCH  20  23
ATOM     23  OH  TYR A   1      -1.509   0.902  -9.833  0.00  0.00    -0.506 OA
ATOM     24  HH  TYR A   1      -0.848   1.322 -10.439  0.00  0.00    +0.292 HD
ENDBRANCH  20  23
ENDBRANCH  16  17
ENDBRANCH   1  16
TORSDOF 10
REMARK  Name = ../refined-set-2016/3ery/3ery_pocket.pdb
REMARK  346 active torsions:
REMARK  status: ('A' for Active; 'I' for Inactive)
REMARK    1  A    between atoms: _1  and  _3
REMARK    2  A    between atoms: _3  and  _4
REMARK    3  A    between atoms: _3  and  _6
REMARK    4  A    between atoms: _6  and  _7
REMARK    5  A    between atoms: _7  and  _8
REMARK    6  A    between atoms: _10  and  _12
REMARK    7  A    between atoms: _12  and  _13
REMARK    8  A    between atoms: _12  and  _15
REMARK    9  A    between atoms: _15  and  _16
REMARK   10  A    between atoms: _16  and  _17
REMARK   11  A    between atoms: _17  and  _18
REMARK   12  A    between atoms: _27  and  _29
REMARK   13  A    between atoms: _29  and  _30
REMARK   14  A    between atoms: _29  and  _32
REMARK   15  A    between atoms: _32  and  _33
REMARK   16  A    between atoms: _38  and  _39
REMARK   17  A    between atoms: _41  and  _43
REMARK   18  A    between atoms: _43  and  _44
REMARK   19  A    between atoms: _43  and  _46
REMARK   20  A    between atoms: _46  and  _47
REMARK   21  A    between atoms: _52  and  _53
REMARK   22  A    between atoms: _55  and  _57
REMARK   23  A    between atoms: _57  and  _58
REMARK   24  A    between atoms: _57  and  _60
REMARK   25  A    between atoms: _60  and  _61
REMARK   26  A    between atoms: _61  and  _62
REMARK   27  A    between atoms: _65  and  _67
REMARK   28  A    between atoms: _67  and  _68
REMARK   29  A    between atoms: _67  and  _70
REMARK   30  A    between atoms: _70  and  _71
REMARK   31  A    between atoms: _76  and  _77
REMARK   32  A    between atoms: _79  and  _81
REMARK   33  A    between atoms: _81  and  _82
REMARK   34  A    between atoms: _81  and  _84
REMARK   35  A    between atoms: _84  and  _85
REMARK   36  A    between atoms: _87  and  _89
REMARK   37  A    between atoms: _89  and  _90
REMARK   38  A    between atoms: _89  and  _92
REMARK   39  A    between atoms: _95  and  _97
REMARK   40  A    between atoms: _97  and  _98
REMARK   41  A    between atoms: _100  and  _102
REMARK   42  A    between atoms: _102  and  _103
REMARK   43  A    between atoms: _102  and  _105
REMARK   44  A    between atoms: _105  and  _106
REMARK   45  A    between atoms: _112  and  _114
REMARK   46  A    between atoms: _114  and  _115
REMARK   47  A    between atoms: _114  and  _117
REMARK   48  A    between atoms: _120  and  _122
REMARK   49  A    between atoms: _122  and  _123
REMARK   50  A    between atoms: _122  and  _125
REMARK   51  A    between atoms: _125  and  _126
REMARK   52  A    between atoms: _132  and  _134
REMARK   53  A    between atoms: _134  and  _135
REMARK   54  A    between atoms: _134  and  _137
REMARK   55  A    between atoms: _137  and  _138
REMARK   56  A    between atoms: _143  and  _144
REMARK   57  A    between atoms: _146  and  _148
REMARK   58  A    between atoms: _148  and  _149
REMARK   59  A    between atoms: _148  and  _151
REMARK   60  A    between atoms: _151  and  _152
REMARK   61  A    between atoms: _152  and  _153
REMARK   62  A    between atoms: _156  and  _158
REMARK   63  A    between atoms: _158  and  _159
REMARK   64  A    between atoms: _158  and  _161
REMARK   65  A    between atoms: _161  and  _162
REMARK   66  A    between atoms: _162  and  _163
REMARK   67  A    between atoms: _166  and  _168
REMARK   68  A    between atoms: _168  and  _169
REMARK   69  A    between atoms: _168  and  _171
REMARK   70  A    between atoms: _171  and  _172
REMARK   71  A    between atoms: _177  and  _178
REMARK   72  A    between atoms: _180  and  _182
REMARK   73  A    between atoms: _182  and  _183
REMARK   74  A    between atoms: _182  and  _185
REMARK   75  A    between atoms: _185  and  _186
REMARK   76  A    between atoms: _196  and  _198
REMARK   77  A    between atoms: _198  and  _199
REMARK   78  A    between atoms: _198  and  _201
REMARK   79  A    between atoms: _201  and  _202
REMARK   80  A    between atoms: _202  and  _203
REMARK   81  A    between atoms: _206  and  _208
REMARK   82  A    between atoms: _208  and  _209
REMARK   83  A    between atoms: _208  and  _211
REMARK   84  A    between atoms: _211  and  _212
REMARK   85  A    between atoms: _212  and  _213
REMARK   86  A    between atoms: _213  and  _214
REMARK   87  A    between atoms: _223  and  _225
REMARK   88  A    between atoms: _225  and  _226
REMARK   89  A    between atoms: _225  and  _228
REMARK   90  A    between atoms: _228  and  _229
REMARK   91  A    between atoms: _232  and  _234
REMARK   92  A    between atoms: _234  and  _235
REMARK   93  A    between atoms: _234  and  _237
REMARK   94  A    between atoms: _237  and  _238
REMARK   95  A    between atoms: _241  and  _243
REMARK   96  A    between atoms: _243  and  _244
REMARK   97  A    between atoms: _243  and  _246
REMARK   98  A    between atoms: _246  and  _247
REMARK   99  A    between atoms: _247  and  _248
REMARK  100  A    between atoms: _253  and  _255
REMARK  101  A    between atoms: _255  and  _256
REMARK  102  A    between atoms: _255  and  _258
REMARK  103  A    between atoms: _261  and  _263
REMARK  104  A    between atoms: _263  and  _264
REMARK  105  A    between atoms: _267  and  _269
REMARK  106  A    between atoms: _269  and  _270
REMARK  107  A    between atoms: _269  and  _272
REMARK  108  A    between atoms: _272  and  _273
REMARK  109  A    between atoms: _273  and  _274
REMARK  110  A    between atoms: _274  and  _275
REMARK  111  A    between atoms: _275  and  _276
REMARK  112  A    between atoms: _280  and  _282
REMARK  113  A    between atoms: _282  and  _283
REMARK  114  A    between atoms: _285  and  _287
REMARK  115  A    between atoms: _287  and  _288
REMARK  116  A    between atoms: _287  and  _290
REMARK  117  A    between atoms: _290  and  _291
REMARK  118  A    between atoms: _291  and  _292
REMARK  119  A    between atoms: _297  and  _299
REMARK  120  A    between atoms: _299  and  _300
REMARK  121  A    between atoms: _299  and  _302
REMARK  122  A    between atoms: _302  and  _303
REMARK  123  A    between atoms: _303  and  _304
REMARK  124  A    between atoms: _309  and  _311
REMARK  125  A    between atoms: _311  and  _312
REMARK  126  A    between atoms: _311  and  _314
REMARK  127  A    between atoms: _314  and  _315
REMARK  128  A    between atoms: _325  and  _327
REMARK  129  A    between atoms: _327  and  _328
REMARK  130  A    between atoms: _327  and  _330
REMARK  131  A    between atoms: _330  and  _331
REMARK  132  A    between atoms: _337  and  _339
REMARK  133  A    between atoms: _339  and  _340
REMARK  134  A    between atoms: _339  and  _342
REMARK  135  A    between atoms: _345  and  _347
REMARK  136  A    between atoms: _347  and  _348
REMARK  137  A    between atoms: _347  and  _350
REMARK  138  A    between atoms: _350  and  _351
REMARK  139  A    between atoms: _356  and  _358
REMARK  140  A    between atoms: _358  and  _359
REMARK  141  A    between atoms: _358  and  _361
REMARK  142  A    between atoms: _361  and  _362
REMARK  143  A    between atoms: _365  and  _367
REMARK  144  A    between atoms: _367  and  _368
REMARK  145  A    between atoms: _367  and  _370
REMARK  146  A    between atoms: _370  and  _371
REMARK  147  A    between atoms: _371  and  _372
REMARK  148  A    between atoms: _372  and  _373
REMARK  149  A    between atoms: _382  and  _384
REMARK  150  A    between atoms: _384  and  _385
REMARK  151  A    between atoms: _384  and  _387
REMARK  152  A    between atoms: _387  and  _388
REMARK  153  A    between atoms: _391  and  _393
REMARK  154  A    between atoms: _393  and  _394
REMARK  155  A    between atoms: _393  and  _396
REMARK  156  A    between atoms: _396  and  _397
REMARK  157  A    between atoms: _400  and  _402
REMARK  158  A    between atoms: _402  and  _403
REMARK  159  A    between atoms: _402  and  _405
REMARK  160  A    between atoms: _405  and  _406
REMARK  161  A    between atoms: _409  and  _411
REMARK  162  A    between atoms: _411  and  _412
REMARK  163  A    between atoms: _411  and  _414
REMARK  164  A    between atoms: _414  and  _415
REMARK  165  A    between atoms: _420  and  _421
REMARK  166  A    between atoms: _423  and  _425
REMARK  167  A    between atoms: _425  and  _426
REMARK  168  A    between atoms: _425  and  _428
REMARK  169  A    between atoms: _428  and  _429
REMARK  170  A    between atoms: _432  and  _434
REMARK  171  A    between atoms: _434  and  _435
REMARK  172  A    between atoms: _434  and  _437
REMARK  173  A    between atoms: _437  and  _438
REMARK  174  A    between atoms: _438  and  _439
REMARK  175  A    between atoms: _444  and  _446
REMARK  176  A    between atoms: _446  and  _447
REMARK  177  A    between atoms: _446  and  _449
REMARK  178  A    between atoms: _449  and  _450
REMARK  179  A    between atoms: _450  and  _451
REMARK  180  A    between atoms: _451  and  _452
REMARK  181  A    between atoms: _461  and  _463
REMARK  182  A    between atoms: _463  and  _464
REMARK  183  A    between atoms: _463  and  _466
REMARK  184  A    between atoms: _466  and  _467
REMARK  185  A    between atoms: _472  and  _473
REMARK  186  A    between atoms: _475  and  _477
REMARK  187  A    between atoms: _477  and  _478
REMARK  188  A    between atoms: _480  and  _482
REMARK  189  A    between atoms: _482  and  _483
REMARK  190  A    between atoms: _482  and  _485
REMARK  191  A    between atoms: _485  and  _486
REMARK  192  A    between atoms: _491  and  _492
REMARK  193  A    between atoms: _494  and  _496
REMARK  194  A    between atoms: _496  and  _497
REMARK  195  A    between atoms: _496  and  _499
REMARK  196  A    between atoms: _499  and  _500
REMARK  197  A    between atoms: _500  and  _501
REMARK  198  A    between atoms: _504  and  _506
REMARK  199  A    between atoms: _506  and  _507
REMARK  200  A    between atoms: _506  and  _509
REMARK  201  A    between atoms: _509  and  _510
REMARK  202  A    between atoms: _516  and  _518
REMARK  203  A    between atoms: _518  and  _519
REMARK  204  A    between atoms: _522  and  _524
REMARK  205  A    between atoms: _524  and  _525
REMARK  206  A    between atoms: _524  and  _527
REMARK  207  A    between atoms: _527  and  _528
REMARK  208  A    between atoms: _533  and  _534
REMARK  209  A    between atoms: _536  and  _538
REMARK  210  A    between atoms: _538  and  _539
REMARK  211  A    between atoms: _538  and  _541
REMARK  212  A    between atoms: _541  and  _542
REMARK  213  A    between atoms: _547  and  _548
REMARK  214  A    between atoms: _550  and  _552
REMARK  215  A    between atoms: _552  and  _553
REMARK  216  A    between atoms: _552  and  _555
REMARK  217  A    between atoms: _555  and  _556
REMARK  218  A    between atoms: _559  and  _561
REMARK  219  A    between atoms: _561  and  _562
REMARK  220  A    between atoms: _561  and  _564
REMARK  221  A    between atoms: _564  and  _565
REMARK  222  A    between atoms: _575  and  _577
REMARK  223  A    between atoms: _577  and  _578
REMARK  224  A    between atoms: _581  and  _583
REMARK  225  A    between atoms: _583  and  _584
REMARK  226  A    between atoms: _587  and  _589
REMARK  227  A    between atoms: _589  and  _590
REMARK  228  A    between atoms: _589  and  _592
REMARK  229  A    between atoms: _592  and  _593
REMARK  230  A    between atoms: _593  and  _594
REMARK  231  A    between atoms: _599  and  _601
REMARK  232  A    between atoms: _601  and  _602
REMARK  233  A    between atoms: _601  and  _604
REMARK  234  A    between atoms: _604  and  _605
REMARK  235  A    between atoms: _608  and  _610
REMARK  236  A    between atoms: _610  and  _611
REMARK  237  A    between atoms: _610  and  _613
REMARK  238  A    between atoms: _613  and  _614
REMARK  239  A    between atoms: _617  and  _619
REMARK  240  A    between atoms: _619  and  _620
REMARK  241  A    between atoms: _619  and  _622
REMARK  242  A    between atoms: _622  and  _623
REMARK  243  A    between atoms: _623  and  _624
REMARK  244  A    between atoms: _624  and  _625
REMARK  245  A    between atoms: _634  and  _636
REMARK  246  A    between atoms: _636  and  _637
REMARK  247  A    between atoms: _636  and  _639
REMARK  248  A    between atoms: _639  and  _640
REMARK  249  A    between atoms: _640  and  _641
REMARK  250  A    between atoms: _641  and  _642
REMARK  251  A    between atoms: _651  and  _653
REMARK  252  A    between atoms: _653  and  _654
REMARK  253  A    between atoms: _653  and  _656
REMARK  254  A    between atoms: _656  and  _657
REMARK  255  A    between atoms: _657  and  _658
REMARK  256  A    between atoms: _658  and  _659
REMARK  257  A    between atoms: _659  and  _660
REMARK  258  A    between atoms: _664  and  _666
REMARK  259  A    between atoms: _666  and  _667
REMARK  260  A    between atoms: _666  and  _669
REMARK  261  A    between atoms: _669  and  _670
REMARK  262  A    between atoms: _680  and  _682
REMARK  263  A    between atoms: _682  and  _683
REMARK  264  A    between atoms: _682  and  _685
REMARK  265  A    between atoms: _685  and  _686
REMARK  266  A    between atoms: _686  and  _687
REMARK  267  A    between atoms: _690  and  _692
REMARK  268  A    between atoms: _692  and  _693
REMARK  269  A    between atoms: _692  and  _695
REMARK  270  A    between atoms: _695  and  _696
REMARK  271  A    between atoms: _696  and  _697
REMARK  272  A    between atoms: _702  and  _704
REMARK  273  A    between atoms: _704  and  _705
REMARK  274  A    between atoms: _708  and  _710
REMARK  275  A    between atoms: _710  and  _711
REMARK  276  A    between atoms: _713  and  _715
REMARK  277  A    between atoms: _715  and  _716
REMARK  278  A    between atoms: _719  and  _721
REMARK  279  A    between atoms: _721  and  _722
REMARK  280  A    between atoms: _725  and  _727
REMARK  281  A    between atoms: _727  and  _728
REMARK  282  A    between atoms: _727  and  _730
REMARK  283  A    between atoms: _730  and  _731
REMARK  284  A    between atoms: _731  and  _732
REMARK  285  A    between atoms: _735  and  _737
REMARK  286  A    between atoms: _737  and  _738
REMARK  287  A    between atoms: _737  and  _740
REMARK  288  A    between atoms: _740  and  _741
REMARK  289  A    between atoms: _746  and  _747
REMARK  290  A    between atoms: _749  and  _751
REMARK  291  A    between atoms: _751  and  _752
REMARK  292  A    between atoms: _751  and  _754
REMARK  293  A    between atoms: _754  and  _755
REMARK  294  A    between atoms: _760  and  _761
REMARK  295  A    between atoms: _763  and  _765
REMARK  296  A    between atoms: _765  and  _766
REMARK  297  A    between atoms: _765  and  _768
REMARK  298  A    between atoms: _768  and  _769
REMARK  299  A    between atoms: _769  and  _770
REMARK  300  A    between atoms: _770  and  _771
REMARK  301  A    between atoms: _780  and  _782
REMARK  302  A    between atoms: _782  and  _783
REMARK  303  A    between atoms: _786  and  _788
REMARK  304  A    between atoms: _788  and  _789
REMARK  305  A    between atoms: _788  and  _791
REMARK  306  A    between atoms: _791  and  _792
REMARK  307  A    between atoms: _797  and  _798
REMARK  308  A    between atoms: _800  and  _802
REMARK  309  A    between atoms: _802  and  _803
REMARK  310  A    between atoms: _802  and  _805
REMARK  311  A    between atoms: _805  and  _806
REMARK  312  A    between atoms: _809  and  _811
REMARK  313  A    between atoms: _811  and  _812
REMARK  314  A    between atoms: _811  and  _814
REMARK  315  A    between atoms: _814  and  _815
REMARK  316  A    between atoms: _815  and  _816
REMARK  317  A    between atoms: _819  and  _821
REMARK  318  A    between atoms: _821  and  _822
REMARK  319  A    between atoms: _821  and  _824
REMARK  320  A    between atoms: _826  and  _828
REMARK  321  A    between atoms: _828  and  _829
REMARK  322  A    between atoms: _828  and  _831
REMARK  323  A    between atoms: _834  and  _836
REMARK  324  A    between atoms: _836  and  _837
REMARK  325  A    between atoms: _836  and  _839
REMARK  326  A    between atoms: _839  and  _840
REMARK  327  A    between atoms: _840  and  _841
REMARK  328  A    between atoms: _844  and  _846
REMARK  329  A    between atoms: _846  and  _847
REMARK  330  A    between atoms: _846  and  _849
REMARK  331  A    between atoms: _849  and  _850
REMARK  332  A    between atoms: _860  and  _862
REMARK  333  A    between atoms: _862  and  _863
REMARK  334  A    between atoms: _862  and  _865
REMARK  335  A    between atoms: _865  and  _866
REMARK  336  A    between atoms: _869  and  _871
REMARK  337  A    between atoms: _871  and  _872
REMARK  338  A    between atoms: _871  and  _874
REMARK  339  A    between atoms: _874  and  _875
REMARK  340  A    between atoms: _875  and  _876
REMARK  341  A    between atoms: _876  and  _877
REMARK  342  A    between atoms: _886  and  _888
REMARK  343  A    between atoms: _888  and  _889
REMARK  344  A    between atoms: _888  and  _891
REMARK  345  A    between atoms: _891  and  _892
REMARK  346  A    between atoms: _897  and  _898
REMARK                            x       y       z     vdW  Elec       q    Type
REMARK                         _______ _______ _______ _____ _____    ______ ____
ROOT
ATOM      1  CA  ALA A   2      -3.055  -8.038   3.623  0.00  0.00    +0.149 C 
ATOM      2  CB  ALA A   2      -4.330  -7.648   2.873  0.00  0.00    +0.031 C 
ENDROOT
BRANCH   1   5
ATOM      3  C   PHE A   1      -0.984  -7.545   2.458  0.00  0.00    +0.239 C 
ATOM      4  O   PHE A   1      -0.868  -6.452   3.022  0.00  0.00    -0.274 OA
ATOM      5  N   ALA A   2      -1.997  -8.369   2.678  0.00  0.00    -0.297 N 
ATOM      6  H   ALA A   2      -2.038  -9.273   2.165  0.00  0.00    +0.150 HD
BRANCH   3   7
ATOM      7  CA  PHE A   1       0.051  -8.023   1.444  0.00  0.00    +0.149 C 
BRANCH   7   8
ATOM      8  N   PHE A   1       0.649  -6.927   0.705  0.00  0.00    -0.238 NA
ATOM      9  H   PHE A   1       1.130  -6.170   1.231  0.00  0.00    +0.142 HD
ENDBRANCH   7   8
BRANCH   7  10
ATOM     10  CB  PHE A   1       1.148  -8.798   2.167  0.00  0.00    +0.053 C 
BRANCH  10  11
ATOM     11  CG  PHE A   1       2.198  -9.358   1.247  0.00  0.00    -0.020 A 
ATOM     12  CD2 PHE A   1       2.207 -10.709   0.930  0.00  0.00    -0.004 A 
ATOM     13  CE2 PHE A   1       3.206 -11.247   0.123  0.00  0.00    -0.000 A 
ATOM     14  CZ  PHE A   1       4.211 -10.422  -0.380  0.00  0.00    -0.000 A 
ATOM     15  CE1 PHE A   1       4.209  -9.065  -0.075  0.00  0.00    -0.000 A 
ATOM     16  CD1 PHE A   1       3.205  -8.540   0.734  0.00  0.00    -0.004 A 
ENDBRANCH  10  11
ENDBRANCH   7  10
ENDBRANCH   3   7
ENDBRANCH   1   5
BRANCH   1  17
ATOM     17  C   ALA A   2      -3.313  -9.244   4.500  0.00  0.00    +0.241 C 
ATOM     18  N   TYR A   3      -3.671  -8.996   5.756  0.00  0.00    -0.298 N 
ATOM     19  H   TYR A   3      -3.766  -8.008   6.068  0.00  0.00    +0.150 HD
ATOM     20  O   ALA A   2      -3.194 -10.376   4.047  0.00  0.00    -0.273 OA
BRANCH  18  21
ATOM     21  CA  TYR A   3      -3.935 -10.068   6.709  0.00  0.00    +0.141 C 
BRANCH  21  22
ATOM     22  C   TYR A   3      -5.284  -9.802   7.392  0.00  0.00    +0.227 C 
ATOM     23  O   TYR A   3      -5.485  -8.744   7.993  0.00  0.00    -0.286 OA
ENDBRANCH  21  22
BRANCH  21  24
ATOM     24  CB  TYR A   3      -2.786 -10.135   7.731  0.00  0.00    +0.054 C 
BRANCH  24  25
ATOM     25  CG  TYR A   3      -2.900 -11.258   8.746  0.00  0.00    -0.020 A 
ATOM     26  CD2 TYR A   3      -2.867 -10.999  10.124  0.00  0.00    -0.001 A 
ATOM     27  CE2 TYR A   3      -3.008 -12.042  11.059  0.00  0.00    +0.036 A 
ATOM     28  CZ  TYR A   3      -3.184 -13.343  10.610  0.00  0.00    +0.134 A 
ATOM     29  CE1 TYR A   3      -3.213 -13.617   9.261  0.00  0.00    +0.036 A 
ATOM     30  CD1 TYR A   3      -3.071 -12.581   8.334  0.00  0.00    -0.001 A 
BRANCH  28  31
ATOM     31  OH  TYR A   3      -3.352 -14.372  11.498  0.00  0.00    -0.506 OA
ATOM     32  HH  TYR A   3      -3.462 -15.221  11.001  0.00  0.00    +0.292 HD
ENDBRANCH  28  31
ENDBRANCH  24  25
ENDBRANCH  21  24
ENDBRANCH  18  21
ENDBRANCH   1  17
TORSDOF 11
REMARK  Name = ../refined-set-2016/3ery/3ery_pocket.pdb
REMARK  346 active torsions:
REMARK  status: ('A' for Active; 'I' for Inactive)
REMARK    1  A    between atoms: _1  and  _3
REMARK    2  A    between atoms: _3  and  _4
REMARK    3  A    between atoms: _3  and  _6
REMARK    4  A    between atoms: _6  and  _7
REMARK    5  A    between atoms: _7  and  _8
REMARK    6  A    between atoms: _10  and  _12
REMARK    7  A    between atoms: _12  and  _13
REMARK    8  A    between atoms: _12  and  _15
REMARK    9  A    between atoms: _15  and  _16
REMARK   10  A    between atoms: _16  and  _17
REMARK   11  A    between atoms: _17  and  _18
REMARK   12  A    between atoms: _27  and  _29
REMARK   13  A    between atoms: _29  and  _30
REMARK   14  A    between atoms: _29  and  _32
REMARK   15  A    between atoms: _32  and  _33
REMARK   16  A    between atoms: _38  and  _39
REMARK   17  A    between atoms: _41  and  _43
REMARK   18  A    between atoms: _43  and  _44
REMARK   19  A    between atoms: _43  and  _46
REMARK   20  A    between atoms: _46  and  _47
REMARK   21  A    between atoms: _52  and  _53
REMARK   22  A    between atoms: _55  and  _57
REMARK   23  A    between atoms: _57  and  _58
REMARK   24  A    between atoms: _57  and  _60
REMARK   25  A    between atoms: _60  and  _61
REMARK   26  A    between atoms: _61  and  _62
REMARK   27  A    between atoms: _65  and  _67
REMARK   28  A    between atoms: _67  and  _68
REMARK   29  A    between atoms: _67  and  _70
REMARK   30  A    between atoms: _70  and  _71
REMARK   31  A    between atoms: _76  and  _77
REMARK   32  A    between atoms: _79  and  _81
REMARK   33  A    between atoms: _81  and  _82
REMARK   34  A    between atoms: _81  and  _84
REMARK   35  A    between atoms: _84  and  _85
REMARK   36  A    between atoms: _87  and  _89
REMARK   37  A    between atoms: _89  and  _90
REMARK   38  A    between atoms: _89  and  _92
REMARK   39  A    between atoms: _95  and  _97
REMARK   40  A    between atoms: _97  and  _98
REMARK   41  A    between atoms: _100  and  _102
REMARK   42  A    between atoms: _102  and  _103
REMARK   43  A    between atoms: _102  and  _105
REMARK   44  A    between atoms: _105  and  _106
REMARK   45  A    between atoms: _112  and  _114
REMARK   46  A    between atoms: _114  and  _115
REMARK   47  A    between atoms: _114  and  _117
REMARK   48  A    between atoms: _120  and  _122
REMARK   49  A    between atoms: _122  and  _123
REMARK   50  A    between atoms: _122  and  _125
REMARK   51  A    between atoms: _125  and  _126
REMARK   52  A    between atoms: _132  and  _134
REMARK   53  A    between atoms: _134  and  _135
REMARK   54  A    between atoms: _134  and  _137
REMARK   55  A    between atoms: _137  and  _138
REMARK   56  A    between atoms: _143  and  _144
REMARK   57  A    between atoms: _146  and  _148
REMARK   58  A    between atoms: _148  and  _149
REMARK   59  A    between atoms: _148  and  _151
REMARK   60  A    between atoms: _151  and  _152
REMARK   61  A    between atoms: _152  and  _153
REMARK   62  A    between atoms: _156  and  _158
REMARK   63  A    between atoms: _158  and  _159
REMARK   64  A    between atoms: _158  and  _161
REMARK   65  A    between atoms: _161  and  _162
REMARK   66  A    between atoms: _162  and  _163
REMARK   67  A    between atoms: _166  and  _168
REMARK   68  A    between atoms: _168  and  _169
REMARK   69  A    between atoms: _168  and  _171
REMARK   70  A    between atoms: _171  and  _172
REMARK   71  A    between atoms: _177  and  _178
REMARK   72  A    between atoms: _180  and  _182
REMARK   73  A    between atoms: _182  and  _183
REMARK   74  A    between atoms: _182  and  _185
REMARK   75  A    between atoms: _185  and  _186
REMARK   76  A    between atoms: _196  and  _198
REMARK   77  A    between atoms: _198  and  _199
REMARK   78  A    between atoms: _198  and  _201
REMARK   79  A    between atoms: _201  and  _202
REMARK   80  A    between atoms: _202  and  _203
REMARK   81  A    between atoms: _206  and  _208
REMARK   82  A    between atoms: _208  and  _209
REMARK   83  A    between atoms: _208  and  _211
REMARK   84  A    between atoms: _211  and  _212
REMARK   85  A    between atoms: _212  and  _213
REMARK   86  A    between atoms: _213  and  _214
REMARK   87  A    between atoms: _223  and  _225
REMARK   88  A    between atoms: _225  and  _226
REMARK   89  A    between atoms: _225  and  _228
REMARK   90  A    between atoms: _228  and  _229
REMARK   91  A    between atoms: _232  and  _234
REMARK   92  A    between atoms: _234  and  _235
REMARK   93  A    between atoms: _234  and  _237
REMARK   94  A    between atoms: _237  and  _238
REMARK   95  A    between atoms: _241  and  _243
REMARK   96  A    between atoms: _243  and  _244
REMARK   97  A    between atoms: _243  and  _246
REMARK   98  A    between atoms: _246  and  _247
REMARK   99  A    between atoms: _247  and  _248
REMARK  100  A    between atoms: _253  and  _255
REMARK  101  A    between atoms: _255  and  _256
REMARK  102  A    between atoms: _255  and  _258
REMARK  103  A    between atoms: _261  and  _263
REMARK  104  A    between atoms: _263  and  _264
REMARK  105  A    between atoms: _267  and  _269
REMARK  106  A    between atoms: _269  and  _270
REMARK  107  A    between atoms: _269  and  _272
REMARK  108  A    between atoms: _272  and  _273
REMARK  109  A    between atoms: _273  and  _274
REMARK  110  A    between atoms: _274  and  _275
REMARK  111  A    between atoms: _275  and  _276
REMARK  112  A    between atoms: _280  and  _282
REMARK  113  A    between atoms: _282  and  _283
REMARK  114  A    between atoms: _285  and  _287
REMARK  115  A    between atoms: _287  and  _288
REMARK  116  A    between atoms: _287  and  _290
REMARK  117  A    between atoms: _290  and  _291
REMARK  118  A    between atoms: _291  and  _292
REMARK  119  A    between atoms: _297  and  _299
REMARK  120  A    between atoms: _299  and  _300
REMARK  121  A    between atoms: _299  and  _302
REMARK  122  A    between atoms: _302  and  _303
REMARK  123  A    between atoms: _303  and  _304
REMARK  124  A    between atoms: _309  and  _311
REMARK  125  A    between atoms: _311  and  _312
REMARK  126  A    between atoms: _311  and  _314
REMARK  127  A    between atoms: _314  and  _315
REMARK  128  A    between atoms: _325  and  _327
REMARK  129  A    between atoms: _327  and  _328
REMARK  130  A    between atoms: _327  and  _330
REMARK  131  A    between atoms: _330  and  _331
REMARK  132  A    between atoms: _337  and  _339
REMARK  133  A    between atoms: _339  and  _340
REMARK  134  A    between atoms: _339  and  _342
REMARK  135  A    between atoms: _345  and  _347
REMARK  136  A    between atoms: _347  and  _348
REMARK  137  A    between atoms: _347  and  _350
REMARK  138  A    between atoms: _350  and  _351
REMARK  139  A    between atoms: _356  and  _358
REMARK  140  A    between atoms: _358  and  _359
REMARK  141  A    between atoms: _358  and  _361
REMARK  142  A    between atoms: _361  and  _362
REMARK  143  A    between atoms: _365  and  _367
REMARK  144  A    between atoms: _367  and  _368
REMARK  145  A    between atoms: _367  and  _370
REMARK  146  A    between atoms: _370  and  _371
REMARK  147  A    between atoms: _371  and  _372
REMARK  148  A    between atoms: _372  and  _373
REMARK  149  A    between atoms: _382  and  _384
REMARK  150  A    between atoms: _384  and  _385
REMARK  151  A    between atoms: _384  and  _387
REMARK  152  A    between atoms: _387  and  _388
REMARK  153  A    between atoms: _391  and  _393
REMARK  154  A    between atoms: _393  and  _394
REMARK  155  A    between atoms: _393  and  _396
REMARK  156  A    between atoms: _396  and  _397
REMARK  157  A    between atoms: _400  and  _402
REMARK  158  A    between atoms: _402  and  _403
REMARK  159  A    between atoms: _402  and  _405
REMARK  160  A    between atoms: _405  and  _406
REMARK  161  A    between atoms: _409  and  _411
REMARK  162  A    between atoms: _411  and  _412
REMARK  163  A    between atoms: _411  and  _414
REMARK  164  A    between atoms: _414  and  _415
REMARK  165  A    between atoms: _420  and  _421
REMARK  166  A    between atoms: _423  and  _425
REMARK  167  A    between atoms: _425  and  _426
REMARK  168  A    between atoms: _425  and  _428
REMARK  169  A    between atoms: _428  and  _429
REMARK  170  A    between atoms: _432  and  _434
REMARK  171  A    between atoms: _434  and  _435
REMARK  172  A    between atoms: _434  and  _437
REMARK  173  A    between atoms: _437  and  _438
REMARK  174  A    between atoms: _438  and  _439
REMARK  175  A    between atoms: _444  and  _446
REMARK  176  A    between atoms: _446  and  _447
REMARK  177  A    between atoms: _446  and  _449
REMARK  178  A    between atoms: _449  and  _450
REMARK  179  A    between atoms: _450  and  _451
REMARK  180  A    between atoms: _451  and  _452
REMARK  181  A    between atoms: _461  and  _463
REMARK  182  A    between atoms: _463  and  _464
REMARK  183  A    between atoms: _463  and  _466
REMARK  184  A    between atoms: _466  and  _467
REMARK  185  A    between atoms: _472  and  _473
REMARK  186  A    between atoms: _475  and  _477
REMARK  187  A    between atoms: _477  and  _478
REMARK  188  A    between atoms: _480  and  _482
REMARK  189  A    between atoms: _482  and  _483
REMARK  190  A    between atoms: _482  and  _485
REMARK  191  A    between atoms: _485  and  _486
REMARK  192  A    between atoms: _491  and  _492
REMARK  193  A    between atoms: _494  and  _496
REMARK  194  A    between atoms: _496  and  _497
REMARK  195  A    between atoms: _496  and  _499
REMARK  196  A    between atoms: _499  and  _500
REMARK  197  A    between atoms: _500  and  _501
REMARK  198  A    between atoms: _504  and  _506
REMARK  199  A    between atoms: _506  and  _507
REMARK  200  A    between atoms: _506  and  _509
REMARK  201  A    between atoms: _509  and  _510
REMARK  202  A    between atoms: _516  and  _518
REMARK  203  A    between atoms: _518  and  _519
REMARK  204  A    between atoms: _522  and  _524
REMARK  205  A    between atoms: _524  and  _525
REMARK  206  A    between atoms: _524  and  _527
REMARK  207  A    between atoms: _527  and  _528
REMARK  208  A    between atoms: _533  and  _534
REMARK  209  A    between atoms: _536  and  _538
REMARK  210  A    between atoms: _538  and  _539
REMARK  211  A    between atoms: _538  and  _541
REMARK  212  A    between atoms: _541  and  _542
REMARK  213  A    between atoms: _547  and  _548
REMARK  214  A    between atoms: _550  and  _552
REMARK  215  A    between atoms: _552  and  _553
REMARK  216  A    between atoms: _552  and  _555
REMARK  217  A    between atoms: _555  and  _556
REMARK  218  A    between atoms: _559  and  _561
REMARK  219  A    between atoms: _561  and  _562
REMARK  220  A    between atoms: _561  and  _564
REMARK  221  A    between atoms: _564  and  _565
REMARK  222  A    between atoms: _575  and  _577
REMARK  223  A    between atoms: _577  and  _578
REMARK  224  A    between atoms: _581  and  _583
REMARK  225  A    between atoms: _583  and  _584
REMARK  226  A    between atoms: _587  and  _589
REMARK  227  A    between atoms: _589  and  _590
REMARK  228  A    between atoms: _589  and  _592
REMARK  229  A    between atoms: _592  and  _593
REMARK  230  A    between atoms: _593  and  _594
REMARK  231  A    between atoms: _599  and  _601
REMARK  232  A    between atoms: _601  and  _602
REMARK  233  A    between atoms: _601  and  _604
REMARK  234  A    between atoms: _604  and  _605
REMARK  235  A    between atoms: _608  and  _610
REMARK  236  A    between atoms: _610  and  _611
REMARK  237  A    between atoms: _610  and  _613
REMARK  238  A    between atoms: _613  and  _614
REMARK  239  A    between atoms: _617  and  _619
REMARK  240  A    between atoms: _619  and  _620
REMARK  241  A    between atoms: _619  and  _622
REMARK  242  A    between atoms: _622  and  _623
REMARK  243  A    between atoms: _623  and  _624
REMARK  244  A    between atoms: _624  and  _625
REMARK  245  A    between atoms: _634  and  _636
REMARK  246  A    between atoms: _636  and  _637
REMARK  247  A    between atoms: _636  and  _639
REMARK  248  A    between atoms: _639  and  _640
REMARK  249  A    between atoms: _640  and  _641
REMARK  250  A    between atoms: _641  and  _642
REMARK  251  A    between atoms: _651  and  _653
REMARK  252  A    between atoms: _653  and  _654
REMARK  253  A    between atoms: _653  and  _656
REMARK  254  A    between atoms: _656  and  _657
REMARK  255  A    between atoms: _657  and  _658
REMARK  256  A    between atoms: _658  and  _659
REMARK  257  A    between atoms: _659  and  _660
REMARK  258  A    between atoms: _664  and  _666
REMARK  259  A    between atoms: _666  and  _667
REMARK  260  A    between atoms: _666  and  _669
REMARK  261  A    between atoms: _669  and  _670
REMARK  262  A    between atoms: _680  and  _682
REMARK  263  A    between atoms: _682  and  _683
REMARK  264  A    between atoms: _682  and  _685
REMARK  265  A    between atoms: _685  and  _686
REMARK  266  A    between atoms: _686  and  _687
REMARK  267  A    between atoms: _690  and  _692
REMARK  268  A    between atoms: _692  and  _693
REMARK  269  A    between atoms: _692  and  _695
REMARK  270  A    between atoms: _695  and  _696
REMARK  271  A    between atoms: _696  and  _697
REMARK  272  A    between atoms: _702  and  _704
REMARK  273  A    between atoms: _704  and  _705
REMARK  274  A    between atoms: _708  and  _710
REMARK  275  A    between atoms: _710  and  _711
REMARK  276  A    between atoms: _713  and  _715
REMARK  277  A    between atoms: _715  and  _716
REMARK  278  A    between atoms: _719  and  _721
REMARK  279  A    between atoms: _721  and  _722
REMARK  280  A    between atoms: _725  and  _727
REMARK  281  A    between atoms: _727  and  _728
REMARK  282  A    between atoms: _727  and  _730
REMARK  283  A    between atoms: _730  and  _731
REMARK  284  A    between atoms: _731  and  _732
REMARK  285  A    between atoms: _735  and  _737
REMARK  286  A    between atoms: _737  and  _738
REMARK  287  A    between atoms: _737  and  _740
REMARK  288  A    between atoms: _740  and  _741
REMARK  289  A    between atoms: _746  and  _747
REMARK  290  A    between atoms: _749  and  _751
REMARK  291  A    between atoms: _751  and  _752
REMARK  292  A    between atoms: _751  and  _754
REMARK  293  A    between atoms: _754  and  _755
REMARK  294  A    between atoms: _760  and  _761
REMARK  295  A    between atoms: _763  and  _765
REMARK  296  A    between atoms: _765  and  _766
REMARK  297  A    between atoms: _765  and  _768
REMARK  298  A    between atoms: _768  and  _769
REMARK  299  A    between atoms: _769  and  _770
REMARK  300  A    between atoms: _770  and  _771
REMARK  301  A    between atoms: _780  and  _782
REMARK  302  A    between atoms: _782  and  _783
REMARK  303  A    between atoms: _786  and  _788
REMARK  304  A    between atoms: _788  and  _789
REMARK  305  A    between atoms: _788  and  _791
REMARK  306  A    between atoms: _791  and  _792
REMARK  307  A    between atoms: _797  and  _798
REMARK  308  A    between atoms: _800  and  _802
REMARK  309  A    between atoms: _802  and  _803
REMARK  310  A    between atoms: _802  and  _805
REMARK  311  A    between atoms: _805  and  _806
REMARK  312  A    between atoms: _809  and  _811
REMARK  313  A    between atoms: _811  and  _812
REMARK  314  A    between atoms: _811  and  _814
REMARK  315  A    between atoms: _814  and  _815
REMARK  316  A    between atoms: _815  and  _816
REMARK  317  A    between atoms: _819  and  _821
REMARK  318  A    between atoms: _821  and  _822
REMARK  319  A    between atoms: _821  and  _824
REMARK  320  A    between atoms: _826  and  _828
REMARK  321  A    between atoms: _828  and  _829
REMARK  322  A    between atoms: _828  and  _831
REMARK  323  A    between atoms: _834  and  _836
REMARK  324  A    between atoms: _836  and  _837
REMARK  325  A    between atoms: _836  and  _839
REMARK  326  A    between atoms: _839  and  _840
REMARK  327  A    between atoms: _840  and  _841
REMARK  328  A    between atoms: _844  and  _846
REMARK  329  A    between atoms: _846  and  _847
REMARK  330  A    between atoms: _846  and  _849
REMARK  331  A    between atoms: _849  and  _850
REMARK  332  A    between atoms: _860  and  _862
REMARK  333  A    between atoms: _862  and  _863
REMARK  334  A    between atoms: _862  and  _865
REMARK  335  A    between atoms: _865  and  _866
REMARK  336  A    between atoms: _869  and  _871
REMARK  337  A    between atoms: _871  and  _872
REMARK  338  A    between atoms: _871  and  _874
REMARK  339  A    between atoms: _874  and  _875
REMARK  340  A    between atoms: _875  and  _876
REMARK  341  A    between atoms: _876  and  _877
REMARK  342  A    between atoms: _886  and  _888
REMARK  343  A    between atoms: _888  and  _889
REMARK  344  A    between atoms: _888  and  _891
REMARK  345  A    between atoms: _891  and  _892
REMARK  346  A    between atoms: _897  and  _898
REMARK                            x       y       z     vdW  Elec       q    Type
REMARK                         _______ _______ _______ _____ _____    ______ ____
ROOT
ATOM      1  CA  TYR A   1       0.106  -5.512   6.440  0.00  0.00    +0.149 C 
ENDROOT
BRANCH   1   2
ATOM      2  C   TYR A   1       1.375  -4.800   5.954  0.00  0.00    +0.239 C 
ATOM      3  O   TYR A   1       1.968  -4.013   6.690  0.00  0.00    -0.274 OA
ATOM      4  N   ILE A   2       1.783  -5.063   4.712  0.00  0.00    -0.298 N 
ATOM      5  H   ILE A   2       1.258  -5.749   4.133  0.00  0.00    +0.150 HD
BRANCH   4   6
ATOM      6  CA  ILE A   2       2.963  -4.397   4.152  0.00  0.00    +0.137 C 
BRANCH   6   7
ATOM      7  CB  ILE A   2       4.271  -5.181   4.489  0.00  0.00    +0.026 C 
ATOM      8  CG2 ILE A   2       4.373  -6.468   3.661  0.00  0.00    +0.002 C 
BRANCH   7   9
ATOM      9  CG1 ILE A   2       5.486  -4.308   4.200  0.00  0.00    +0.002 C 
ATOM     10  CD1 ILE A   2       6.741  -4.824   4.872  0.00  0.00    +0.000 C 
ENDBRANCH   7   9
ENDBRANCH   6   7
BRANCH   6  11
ATOM     11  C   ILE A   2       2.819  -4.190   2.649  0.00  0.00    +0.227 C 
ATOM     12  O   ILE A   2       2.340  -5.075   1.942  0.00  0.00    -0.286 OA
ENDBRANCH   6  11
ENDBRANCH   4   6
ENDBRANCH   1   2
BRANCH   1  13
ATOM     13  N   TYR A   1      -1.008  -5.034   5.628  0.00  0.00    -0.238 NA
ATOM     14  H   TYR A   1      -0.999  -5.232   4.607  0.00  0.00    +0.142 HD
ENDBRANCH   1  13
BRANCH   1  15
ATOM     15  CB  TYR A   1       0.229  -7.041   6.301  0.00  0.00    +0.053 C 
BRANCH  15  16
ATOM     16  CG  TYR A   1       1.319  -7.643   7.154  0.00  0.00    -0.020 A 
ATOM     17  CD2 TYR A   1       1.151  -7.788   8.530  0.00  0.00    -0.001 A 
ATOM     18  CE2 TYR A   1       2.173  -8.280   9.330  0.00  0.00    +0.036 A 
ATOM     19  CZ  TYR A   1       3.380  -8.637   8.754  0.00  0.00    +0.134 A 
ATOM     20  CE1 TYR A   1       3.569  -8.511   7.387  0.00  0.00    +0.036 A 
ATOM     21  CD1 TYR A   1       2.542  -8.015   6.598  0.00  0.00    -0.001 A 
BRANCH  19  22
ATOM     22  OH  TYR A   1       4.398  -9.097   9.555  0.00  0.00    -0.506 OA
ATOM     23  HH  TYR A   1       5.187  -9.308   8.995  0.00  0.00    +0.292 HD
ENDBRANCH  19  22
ENDBRANCH  15  16
ENDBRANCH   1  15
TORSDOF 9
REMARK  Name = ../refined-set-2016/3ery/3ery_pocket.pdb
REMARK  346 active torsions:
REMARK  status: ('A' for Active; 'I' for Inactive)
REMARK    1  A    between atoms: _1  and  _3
REMARK    2  A    between atoms: _3  and  _4
REMARK    3  A    between atoms: _3  and  _6
REMARK    4  A    between atoms: _6  and  _7
REMARK    5  A    between atoms: _7  and  _8
REMARK    6  A    between atoms: _10  and  _12
REMARK    7  A    between atoms: _12  and  _13
REMARK    8  A    between atoms: _12  and  _15
REMARK    9  A    between atoms: _15  and  _16
REMARK   10  A    between atoms: _16  and  _17
REMARK   11  A    between atoms: _17  and  _18
REMARK   12  A    between atoms: _27  and  _29
REMARK   13  A    between atoms: _29  and  _30
REMARK   14  A    between atoms: _29  and  _32
REMARK   15  A    between atoms: _32  and  _33
REMARK   16  A    between atoms: _38  and  _39
REMARK   17  A    between atoms: _41  and  _43
REMARK   18  A    between atoms: _43  and  _44
REMARK   19  A    between atoms: _43  and  _46
REMARK   20  A    between atoms: _46  and  _47
REMARK   21  A    between atoms: _52  and  _53
REMARK   22  A    between atoms: _55  and  _57
REMARK   23  A    between atoms: _57  and  _58
REMARK   24  A    between atoms: _57  and  _60
REMARK   25  A    between atoms: _60  and  _61
REMARK   26  A    between atoms: _61  and  _62
REMARK   27  A    between atoms: _65  and  _67
REMARK   28  A    between atoms: _67  and  _68
REMARK   29  A    between atoms: _67  and  _70
REMARK   30  A    between atoms: _70  and  _71
REMARK   31  A    between atoms: _76  and  _77
REMARK   32  A    between atoms: _79  and  _81
REMARK   33  A    between atoms: _81  and  _82
REMARK   34  A    between atoms: _81  and  _84
REMARK   35  A    between atoms: _84  and  _85
REMARK   36  A    between atoms: _87  and  _89
REMARK   37  A    between atoms: _89  and  _90
REMARK   38  A    between atoms: _89  and  _92
REMARK   39  A    between atoms: _95  and  _97
REMARK   40  A    between atoms: _97  and  _98
REMARK   41  A    between atoms: _100  and  _102
REMARK   42  A    between atoms: _102  and  _103
REMARK   43  A    between atoms: _102  and  _105
REMARK   44  A    between atoms: _105  and  _106
REMARK   45  A    between atoms: _112  and  _114
REMARK   46  A    between atoms: _114  and  _115
REMARK   47  A    between atoms: _114  and  _117
REMARK   48  A    between atoms: _120  and  _122
REMARK   49  A    between atoms: _122  and  _123
REMARK   50  A    between atoms: _122  and  _125
REMARK   51  A    between atoms: _125  and  _126
REMARK   52  A    between atoms: _132  and  _134
REMARK   53  A    between atoms: _134  and  _135
REMARK   54  A    between atoms: _134  and  _137
REMARK   55  A    between atoms: _137  and  _138
REMARK   56  A    between atoms: _143  and  _144
REMARK   57  A    between atoms: _146  and  _148
REMARK   58  A    between atoms: _148  and  _149
REMARK   59  A    between atoms: _148  and  _151
REMARK   60  A    between atoms: _151  and  _152
REMARK   61  A    between atoms: _152  and  _153
REMARK   62  A    between atoms: _156  and  _158
REMARK   63  A    between atoms: _158  and  _159
REMARK   64  A    between atoms: _158  and  _161
REMARK   65  A    between atoms: _161  and  _162
REMARK   66  A    between atoms: _162  and  _163
REMARK   67  A    between atoms: _166  and  _168
REMARK   68  A    between atoms: _168  and  _169
REMARK   69  A    between atoms: _168  and  _171
REMARK   70  A    between atoms: _171  and  _172
REMARK   71  A    between atoms: _177  and  _178
REMARK   72  A    between atoms: _180  and  _182
REMARK   73  A    between atoms: _182  and  _183
REMARK   74  A    between atoms: _182  and  _185
REMARK   75  A    between atoms: _185  and  _186
REMARK   76  A    between atoms: _196  and  _198
REMARK   77  A    between atoms: _198  and  _199
REMARK   78  A    between atoms: _198  and  _201
REMARK   79  A    between atoms: _201  and  _202
REMARK   80  A    between atoms: _202  and  _203
REMARK   81  A    between atoms: _206  and  _208
REMARK   82  A    between atoms: _208  and  _209
REMARK   83  A    between atoms: _208  and  _211
REMARK   84  A    between atoms: _211  and  _212
REMARK   85  A    between atoms: _212  and  _213
REMARK   86  A    between atoms: _213  and  _214
REMARK   87  A    between atoms: _223  and  _225
REMARK   88  A    between atoms: _225  and  _226
REMARK   89  A    between atoms: _225  and  _228
REMARK   90  A    between atoms: _228  and  _229
REMARK   91  A    between atoms: _232  and  _234
REMARK   92  A    between atoms: _234  and  _235
REMARK   93  A    between atoms: _234  and  _237
REMARK   94  A    between atoms: _237  and  _238
REMARK   95  A    between atoms: _241  and  _243
REMARK   96  A    between atoms: _243  and  _244
REMARK   97  A    between atoms: _243  and  _246
REMARK   98  A    between atoms: _246  and  _247
REMARK   99  A    between atoms: _247  and  _248
REMARK  100  A    between atoms: _253  and  _255
REMARK  101  A    between atoms: _255  and  _256
REMARK  102  A    between atoms: _255  and  _258
REMARK  103  A    between atoms: _261  and  _263
REMARK  104  A    between atoms: _263  and  _264
REMARK  105  A    between atoms: _267  and  _269
REMARK  106  A    between atoms: _269  and  _270
REMARK  107  A    between atoms: _269  and  _272
REMARK  108  A    between atoms: _272  and  _273
REMARK  109  A    between atoms: _273  and  _274
REMARK  110  A    between atoms: _274  and  _275
REMARK  111  A    between atoms: _275  and  _276
REMARK  112  A    between atoms: _280  and  _282
REMARK  113  A    between atoms: _282  and  _283
REMARK  114  A    between atoms: _285  and  _287
REMARK  115  A    between atoms: _287  and  _288
REMARK  116  A    between atoms: _287  and  _290
REMARK  117  A    between atoms: _290  and  _291
REMARK  118  A    between atoms: _291  and  _292
REMARK  119  A    between atoms: _297  and  _299
REMARK  120  A    between atoms: _299  and  _300
REMARK  121  A    between atoms: _299  and  _302
REMARK  122  A    between atoms: _302  and  _303
REMARK  123  A    between atoms: _303  and  _304
REMARK  124  A    between atoms: _309  and  _311
REMARK  125  A    between atoms: _311  and  _312
REMARK  126  A    between atoms: _311  and  _314
REMARK  127  A    between atoms: _314  and  _315
REMARK  128  A    between atoms: _325  and  _327
REMARK  129  A    between atoms: _327  and  _328
REMARK  130  A    between atoms: _327  and  _330
REMARK  131  A    between atoms: _330  and  _331
REMARK  132  A    between atoms: _337  and  _339
REMARK  133  A    between atoms: _339  and  _340
REMARK  134  A    between atoms: _339  and  _342
REMARK  135  A    between atoms: _345  and  _347
REMARK  136  A    between atoms: _347  and  _348
REMARK  137  A    between atoms: _347  and  _350
REMARK  138  A    between atoms: _350  and  _351
REMARK  139  A    between atoms: _356  and  _358
REMARK  140  A    between atoms: _358  and  _359
REMARK  141  A    between atoms: _358  and  _361
REMARK  142  A    between atoms: _361  and  _362
REMARK  143  A    between atoms: _365  and  _367
REMARK  144  A    between atoms: _367  and  _368
REMARK  145  A    between atoms: _367  and  _370
REMARK  146  A    between atoms: _370  and  _371
REMARK  147  A    between atoms: _371  and  _372
REMARK  148  A    between atoms: _372  and  _373
REMARK  149  A    between atoms: _382  and  _384
REMARK  150  A    between atoms: _384  and  _385
REMARK  151  A    between atoms: _384  and  _387
REMARK  152  A    between atoms: _387  and  _388
REMARK  153  A    between atoms: _391  and  _393
REMARK  154  A    between atoms: _393  and  _394
REMARK  155  A    between atoms: _393  and  _396
REMARK  156  A    between atoms: _396  and  _397
REMARK  157  A    between atoms: _400  and  _402
REMARK  158  A    between atoms: _402  and  _403
REMARK  159  A    between atoms: _402  and  _405
REMARK  160  A    between atoms: _405  and  _406
REMARK  161  A    between atoms: _409  and  _411
REMARK  162  A    between atoms: _411  and  _412
REMARK  163  A    between atoms: _411  and  _414
REMARK  164  A    between atoms: _414  and  _415
REMARK  165  A    between atoms: _420  and  _421
REMARK  166  A    between atoms: _423  and  _425
REMARK  167  A    between atoms: _425  and  _426
REMARK  168  A    between atoms: _425  and  _428
REMARK  169  A    between atoms: _428  and  _429
REMARK  170  A    between atoms: _432  and  _434
REMARK  171  A    between atoms: _434  and  _435
REMARK  172  A    between atoms: _434  and  _437
REMARK  173  A    between atoms: _437  and  _438
REMARK  174  A    between atoms: _438  and  _439
REMARK  175  A    between atoms: _444  and  _446
REMARK  176  A    between atoms: _446  and  _447
REMARK  177  A    between atoms: _446  and  _449
REMARK  178  A    between atoms: _449  and  _450
REMARK  179  A    between atoms: _450  and  _451
REMARK  180  A    between atoms: _451  and  _452
REMARK  181  A    between atoms: _461  and  _463
REMARK  182  A    between atoms: _463  and  _464
REMARK  183  A    between atoms: _463  and  _466
REMARK  184  A    between atoms: _466  and  _467
REMARK  185  A    between atoms: _472  and  _473
REMARK  186  A    between atoms: _475  and  _477
REMARK  187  A    between atoms: _477  and  _478
REMARK  188  A    between atoms: _480  and  _482
REMARK  189  A    between atoms: _482  and  _483
REMARK  190  A    between atoms: _482  and  _485
REMARK  191  A    between atoms: _485  and  _486
REMARK  192  A    between atoms: _491  and  _492
REMARK  193  A    between atoms: _494  and  _496
REMARK  194  A    between atoms: _496  and  _497
REMARK  195  A    between atoms: _496  and  _499
REMARK  196  A    between atoms: _499  and  _500
REMARK  197  A    between atoms: _500  and  _501
REMARK  198  A    between atoms: _504  and  _506
REMARK  199  A    between atoms: _506  and  _507
REMARK  200  A    between atoms: _506  and  _509
REMARK  201  A    between atoms: _509  and  _510
REMARK  202  A    between atoms: _516  and  _518
REMARK  203  A    between atoms: _518  and  _519
REMARK  204  A    between atoms: _522  and  _524
REMARK  205  A    between atoms: _524  and  _525
REMARK  206  A    between atoms: _524  and  _527
REMARK  207  A    between atoms: _527  and  _528
REMARK  208  A    between atoms: _533  and  _534
REMARK  209  A    between atoms: _536  and  _538
REMARK  210  A    between atoms: _538  and  _539
REMARK  211  A    between atoms: _538  and  _541
REMARK  212  A    between atoms: _541  and  _542
REMARK  213  A    between atoms: _547  and  _548
REMARK  214  A    between atoms: _550  and  _552
REMARK  215  A    between atoms: _552  and  _553
REMARK  216  A    between atoms: _552  and  _555
REMARK  217  A    between atoms: _555  and  _556
REMARK  218  A    between atoms: _559  and  _561
REMARK  219  A    between atoms: _561  and  _562
REMARK  220  A    between atoms: _561  and  _564
REMARK  221  A    between atoms: _564  and  _565
REMARK  222  A    between atoms: _575  and  _577
REMARK  223  A    between atoms: _577  and  _578
REMARK  224  A    between atoms: _581  and  _583
REMARK  225  A    between atoms: _583  and  _584
REMARK  226  A    between atoms: _587  and  _589
REMARK  227  A    between atoms: _589  and  _590
REMARK  228  A    between atoms: _589  and  _592
REMARK  229  A    between atoms: _592  and  _593
REMARK  230  A    between atoms: _593  and  _594
REMARK  231  A    between atoms: _599  and  _601
REMARK  232  A    between atoms: _601  and  _602
REMARK  233  A    between atoms: _601  and  _604
REMARK  234  A    between atoms: _604  and  _605
REMARK  235  A    between atoms: _608  and  _610
REMARK  236  A    between atoms: _610  and  _611
REMARK  237  A    between atoms: _610  and  _613
REMARK  238  A    between atoms: _613  and  _614
REMARK  239  A    between atoms: _617  and  _619
REMARK  240  A    between atoms: _619  and  _620
REMARK  241  A    between atoms: _619  and  _622
REMARK  242  A    between atoms: _622  and  _623
REMARK  243  A    between atoms: _623  and  _624
REMARK  244  A    between atoms: _624  and  _625
REMARK  245  A    between atoms: _634  and  _636
REMARK  246  A    between atoms: _636  and  _637
REMARK  247  A    between atoms: _636  and  _639
REMARK  248  A    between atoms: _639  and  _640
REMARK  249  A    between atoms: _640  and  _641
REMARK  250  A    between atoms: _641  and  _642
REMARK  251  A    between atoms: _651  and  _653
REMARK  252  A    between atoms: _653  and  _654
REMARK  253  A    between atoms: _653  and  _656
REMARK  254  A    between atoms: _656  and  _657
REMARK  255  A    between atoms: _657  and  _658
REMARK  256  A    between atoms: _658  and  _659
REMARK  257  A    between atoms: _659  and  _660
REMARK  258  A    between atoms: _664  and  _666
REMARK  259  A    between atoms: _666  and  _667
REMARK  260  A    between atoms: _666  and  _669
REMARK  261  A    between atoms: _669  and  _670
REMARK  262  A    between atoms: _680  and  _682
REMARK  263  A    between atoms: _682  and  _683
REMARK  264  A    between atoms: _682  and  _685
REMARK  265  A    between atoms: _685  and  _686
REMARK  266  A    between atoms: _686  and  _687
REMARK  267  A    between atoms: _690  and  _692
REMARK  268  A    between atoms: _692  and  _693
REMARK  269  A    between atoms: _692  and  _695
REMARK  270  A    between atoms: _695  and  _696
REMARK  271  A    between atoms: _696  and  _697
REMARK  272  A    between atoms: _702  and  _704
REMARK  273  A    between atoms: _704  and  _705
REMARK  274  A    between atoms: _708  and  _710
REMARK  275  A    between atoms: _710  and  _711
REMARK  276  A    between atoms: _713  and  _715
REMARK  277  A    between atoms: _715  and  _716
REMARK  278  A    between atoms: _719  and  _721
REMARK  279  A    between atoms: _721  and  _722
REMARK  280  A    between atoms: _725  and  _727
REMARK  281  A    between atoms: _727  and  _728
REMARK  282  A    between atoms: _727  and  _730
REMARK  283  A    between atoms: _730  and  _731
REMARK  284  A    between atoms: _731  and  _732
REMARK  285  A    between atoms: _735  and  _737
REMARK  286  A    between atoms: _737  and  _738
REMARK  287  A    between atoms: _737  and  _740
REMARK  288  A    between atoms: _740  and  _741
REMARK  289  A    between atoms: _746  and  _747
REMARK  290  A    between atoms: _749  and  _751
REMARK  291  A    between atoms: _751  and  _752
REMARK  292  A    between atoms: _751  and  _754
REMARK  293  A    between atoms: _754  and  _755
REMARK  294  A    between atoms: _760  and  _761
REMARK  295  A    between atoms: _763  and  _765
REMARK  296  A    between atoms: _765  and  _766
REMARK  297  A    between atoms: _765  and  _768
REMARK  298  A    between atoms: _768  and  _769
REMARK  299  A    between atoms: _769  and  _770
REMARK  300  A    between atoms: _770  and  _771
REMARK  301  A    between atoms: _780  and  _782
REMARK  302  A    between atoms: _782  and  _783
REMARK  303  A    between atoms: _786  and  _788
REMARK  304  A    between atoms: _788  and  _789
REMARK  305  A    between atoms: _788  and  _791
REMARK  306  A    between atoms: _791  and  _792
REMARK  307  A    between atoms: _797  and  _798
REMARK  308  A    between atoms: _800  and  _802
REMARK  309  A    between atoms: _802  and  _803
REMARK  310  A    between atoms: _802  and  _805
REMARK  311  A    between atoms: _805  and  _806
REMARK  312  A    between atoms: _809  and  _811
REMARK  313  A    between atoms: _811  and  _812
REMARK  314  A    between atoms: _811  and  _814
REMARK  315  A    between atoms: _814  and  _815
REMARK  316  A    between atoms: _815  and  _816
REMARK  317  A    between atoms: _819  and  _821
REMARK  318  A    between atoms: _821  and  _822
REMARK  319  A    between atoms: _821  and  _824
REMARK  320  A    between atoms: _826  and  _828
REMARK  321  A    between atoms: _828  and  _829
REMARK  322  A    between atoms: _828  and  _831
REMARK  323  A    between atoms: _834  and  _836
REMARK  324  A    between atoms: _836  and  _837
REMARK  325  A    between atoms: _836  and  _839
REMARK  326  A    between atoms: _839  and  _840
REMARK  327  A    between atoms: _840  and  _841
REMARK  328  A    between atoms: _844  and  _846
REMARK  329  A    between atoms: _846  and  _847
REMARK  330  A    between atoms: _846  and  _849
REMARK  331  A    between atoms: _849  and  _850
REMARK  332  A    between atoms: _860  and  _862
REMARK  333  A    between atoms: _862  and  _863
REMARK  334  A    between atoms: _862  and  _865
REMARK  335  A    between atoms: _865  and  _866
REMARK  336  A    between atoms: _869  and  _871
REMARK  337  A    between atoms: _871  and  _872
REMARK  338  A    between atoms: _871  and  _874
REMARK  339  A    between atoms: _874  and  _875
REMARK  340  A    between atoms: _875  and  _876
REMARK  341  A    between atoms: _876  and  _877
REMARK  342  A    between atoms: _886  and  _888
REMARK  343  A    between atoms: _888  and  _889
REMARK  344  A    between atoms: _888  and  _891
REMARK  345  A    between atoms: _891  and  _892
REMARK  346  A    between atoms: _897  and  _898
REMARK                            x       y       z     vdW  Elec       q    Type
REMARK                         _______ _______ _______ _____ _____    ______ ____
ROOT
ATOM      1  CG  TRP A   1       8.944  -2.467   2.061  0.00  0.00    -0.002 A 
ATOM      2  CD1 TRP A   1      10.304  -2.527   1.992  0.00  0.00    +0.068 A 
ATOM      3  NE1 TRP A   1      10.694  -3.466   1.070  0.00  0.00    -0.352 N 
ATOM      4  HE1 TRP A   1      11.677  -3.706   0.829  0.00  0.00    +0.166 HD
ATOM      5  CE2 TRP A   1       9.576  -4.034   0.520  0.00  0.00    +0.056 A 
ATOM      6  CZ2 TRP A   1       9.455  -5.028  -0.455  0.00  0.00    +0.017 A 
ATOM      7  CH2 TRP A   1       8.188  -5.401  -0.815  0.00  0.00    +0.001 A 
ATOM      8  CZ3 TRP A   1       7.045  -4.804  -0.227  0.00  0.00    +0.000 A 
ATOM      9  CE3 TRP A   1       7.169  -3.823   0.737  0.00  0.00    +0.001 A 
ATOM     10  CD2 TRP A   1       8.452  -3.421   1.125  0.00  0.00    +0.013 A 
ENDROOT
BRANCH   1  11
ATOM     11  CB  TRP A   1       8.127  -1.586   2.933  0.00  0.00    +0.053 C 
BRANCH  11  12
ATOM     12  CA  TRP A   1       7.757  -0.230   2.316  0.00  0.00    +0.137 C 
BRANCH  12  13
ATOM     13  N   TRP A   1       8.962   0.519   1.966  0.00  0.00    -0.239 NA
ATOM     14  H   TRP A   1       9.661   0.732   2.706  0.00  0.00    +0.142 HD
ENDBRANCH  12  13
BRANCH  12  15
ATOM     15  C   TRP A   1       6.882   0.494   3.313  0.00  0.00    +0.224 C 
ATOM     16  O   TRP A   1       7.385   1.147   4.223  0.00  0.00    -0.287 OA
ENDBRANCH  12  15
ENDBRANCH  11  12
ENDBRANCH   1  11
TORSDOF 4
REMARK  Name = ../refined-set-2016/3ery/3ery_pocket.pdb
REMARK  346 active torsions:
REMARK  status: ('A' for Active; 'I' for Inactive)
REMARK    1  A    between atoms: _1  and  _3
REMARK    2  A    between atoms: _3  and  _4
REMARK    3  A    between atoms: _3  and  _6
REMARK    4  A    between atoms: _6  and  _7
REMARK    5  A    between atoms: _7  and  _8
REMARK    6  A    between atoms: _10  and  _12
REMARK    7  A    between atoms: _12  and  _13
REMARK    8  A    between atoms: _12  and  _15
REMARK    9  A    between atoms: _15  and  _16
REMARK   10  A    between atoms: _16  and  _17
REMARK   11  A    between atoms: _17  and  _18
REMARK   12  A    between atoms: _27  and  _29
REMARK   13  A    between atoms: _29  and  _30
REMARK   14  A    between atoms: _29  and  _32
REMARK   15  A    between atoms: _32  and  _33
REMARK   16  A    between atoms: _38  and  _39
REMARK   17  A    between atoms: _41  and  _43
REMARK   18  A    between atoms: _43  and  _44
REMARK   19  A    between atoms: _43  and  _46
REMARK   20  A    between atoms: _46  and  _47
REMARK   21  A    between atoms: _52  and  _53
REMARK   22  A    between atoms: _55  and  _57
REMARK   23  A    between atoms: _57  and  _58
REMARK   24  A    between atoms: _57  and  _60
REMARK   25  A    between atoms: _60  and  _61
REMARK   26  A    between atoms: _61  and  _62
REMARK   27  A    between atoms: _65  and  _67
REMARK   28  A    between atoms: _67  and  _68
REMARK   29  A    between atoms: _67  and  _70
REMARK   30  A    between atoms: _70  and  _71
REMARK   31  A    between atoms: _76  and  _77
REMARK   32  A    between atoms: _79  and  _81
REMARK   33  A    between atoms: _81  and  _82
REMARK   34  A    between atoms: _81  and  _84
REMARK   35  A    between atoms: _84  and  _85
REMARK   36  A    between atoms: _87  and  _89
REMARK   37  A    between atoms: _89  and  _90
REMARK   38  A    between atoms: _89  and  _92
REMARK   39  A    between atoms: _95  and  _97
REMARK   40  A    between atoms: _97  and  _98
REMARK   41  A    between atoms: _100  and  _102
REMARK   42  A    between atoms: _102  and  _103
REMARK   43  A    between atoms: _102  and  _105
REMARK   44  A    between atoms: _105  and  _106
REMARK   45  A    between atoms: _112  and  _114
REMARK   46  A    between atoms: _114  and  _115
REMARK   47  A    between atoms: _114  and  _117
REMARK   48  A    between atoms: _120  and  _122
REMARK   49  A    between atoms: _122  and  _123
REMARK   50  A    between atoms: _122  and  _125
REMARK   51  A    between atoms: _125  and  _126
REMARK   52  A    between atoms: _132  and  _134
REMARK   53  A    between atoms: _134  and  _135
REMARK   54  A    between atoms: _134  and  _137
REMARK   55  A    between atoms: _137  and  _138
REMARK   56  A    between atoms: _143  and  _144
REMARK   57  A    between atoms: _146  and  _148
REMARK   58  A    between atoms: _148  and  _149
REMARK   59  A    between atoms: _148  and  _151
REMARK   60  A    between atoms: _151  and  _152
REMARK   61  A    between atoms: _152  and  _153
REMARK   62  A    between atoms: _156  and  _158
REMARK   63  A    between atoms: _158  and  _159
REMARK   64  A    between atoms: _158  and  _161
REMARK   65  A    between atoms: _161  and  _162
REMARK   66  A    between atoms: _162  and  _163
REMARK   67  A    between atoms: _166  and  _168
REMARK   68  A    between atoms: _168  and  _169
REMARK   69  A    between atoms: _168  and  _171
REMARK   70  A    between atoms: _171  and  _172
REMARK   71  A    between atoms: _177  and  _178
REMARK   72  A    between atoms: _180  and  _182
REMARK   73  A    between atoms: _182  and  _183
REMARK   74  A    between atoms: _182  and  _185
REMARK   75  A    between atoms: _185  and  _186
REMARK   76  A    between atoms: _196  and  _198
REMARK   77  A    between atoms: _198  and  _199
REMARK   78  A    between atoms: _198  and  _201
REMARK   79  A    between atoms: _201  and  _202
REMARK   80  A    between atoms: _202  and  _203
REMARK   81  A    between atoms: _206  and  _208
REMARK   82  A    between atoms: _208  and  _209
REMARK   83  A    between atoms: _208  and  _211
REMARK   84  A    between atoms: _211  and  _212
REMARK   85  A    between atoms: _212  and  _213
REMARK   86  A    between atoms: _213  and  _214
REMARK   87  A    between atoms: _223  and  _225
REMARK   88  A    between atoms: _225  and  _226
REMARK   89  A    between atoms: _225  and  _228
REMARK   90  A    between atoms: _228  and  _229
REMARK   91  A    between atoms: _232  and  _234
REMARK   92  A    between atoms: _234  and  _235
REMARK   93  A    between atoms: _234  and  _237
REMARK   94  A    between atoms: _237  and  _238
REMARK   95  A    between atoms: _241  and  _243
REMARK   96  A    between atoms: _243  and  _244
REMARK   97  A    between atoms: _243  and  _246
REMARK   98  A    between atoms: _246  and  _247
REMARK   99  A    between atoms: _247  and  _248
REMARK  100  A    between atoms: _253  and  _255
REMARK  101  A    between atoms: _255  and  _256
REMARK  102  A    between atoms: _255  and  _258
REMARK  103  A    between atoms: _261  and  _263
REMARK  104  A    between atoms: _263  and  _264
REMARK  105  A    between atoms: _267  and  _269
REMARK  106  A    between atoms: _269  and  _270
REMARK  107  A    between atoms: _269  and  _272
REMARK  108  A    between atoms: _272  and  _273
REMARK  109  A    between atoms: _273  and  _274
REMARK  110  A    between atoms: _274  and  _275
REMARK  111  A    between atoms: _275  and  _276
REMARK  112  A    between atoms: _280  and  _282
REMARK  113  A    between atoms: _282  and  _283
REMARK  114  A    between atoms: _285  and  _287
REMARK  115  A    between atoms: _287  and  _288
REMARK  116  A    between atoms: _287  and  _290
REMARK  117  A    between atoms: _290  and  _291
REMARK  118  A    between atoms: _291  and  _292
REMARK  119  A    between atoms: _297  and  _299
REMARK  120  A    between atoms: _299  and  _300
REMARK  121  A    between atoms: _299  and  _302
REMARK  122  A    between atoms: _302  and  _303
REMARK  123  A    between atoms: _303  and  _304
REMARK  124  A    between atoms: _309  and  _311
REMARK  125  A    between atoms: _311  and  _312
REMARK  126  A    between atoms: _311  and  _314
REMARK  127  A    between atoms: _314  and  _315
REMARK  128  A    between atoms: _325  and  _327
REMARK  129  A    between atoms: _327  and  _328
REMARK  130  A    between atoms: _327  and  _330
REMARK  131  A    between atoms: _330  and  _331
REMARK  132  A    between atoms: _337  and  _339
REMARK  133  A    between atoms: _339  and  _340
REMARK  134  A    between atoms: _339  and  _342
REMARK  135  A    between atoms: _345  and  _347
REMARK  136  A    between atoms: _347  and  _348
REMARK  137  A    between atoms: _347  and  _350
REMARK  138  A    between atoms: _350  and  _351
REMARK  139  A    between atoms: _356  and  _358
REMARK  140  A    between atoms: _358  and  _359
REMARK  141  A    between atoms: _358  and  _361
REMARK  142  A    between atoms: _361  and  _362
REMARK  143  A    between atoms: _365  and  _367
REMARK  144  A    between atoms: _367  and  _368
REMARK  145  A    between atoms: _367  and  _370
REMARK  146  A    between atoms: _370  and  _371
REMARK  147  A    between atoms: _371  and  _372
REMARK  148  A    between atoms: _372  and  _373
REMARK  149  A    between atoms: _382  and  _384
REMARK  150  A    between atoms: _384  and  _385
REMARK  151  A    between atoms: _384  and  _387
REMARK  152  A    between atoms: _387  and  _388
REMARK  153  A    between atoms: _391  and  _393
REMARK  154  A    between atoms: _393  and  _394
REMARK  155  A    between atoms: _393  and  _396
REMARK  156  A    between atoms: _396  and  _397
REMARK  157  A    between atoms: _400  and  _402
REMARK  158  A    between atoms: _402  and  _403
REMARK  159  A    between atoms: _402  and  _405
REMARK  160  A    between atoms: _405  and  _406
REMARK  161  A    between atoms: _409  and  _411
REMARK  162  A    between atoms: _411  and  _412
REMARK  163  A    between atoms: _411  and  _414
REMARK  164  A    between atoms: _414  and  _415
REMARK  165  A    between atoms: _420  and  _421
REMARK  166  A    between atoms: _423  and  _425
REMARK  167  A    between atoms: _425  and  _426
REMARK  168  A    between atoms: _425  and  _428
REMARK  169  A    between atoms: _428  and  _429
REMARK  170  A    between atoms: _432  and  _434
REMARK  171  A    between atoms: _434  and  _435
REMARK  172  A    between atoms: _434  and  _437
REMARK  173  A    between atoms: _437  and  _438
REMARK  174  A    between atoms: _438  and  _439
REMARK  175  A    between atoms: _444  and  _446
REMARK  176  A    between atoms: _446  and  _447
REMARK  177  A    between atoms: _446  and  _449
REMARK  178  A    between atoms: _449  and  _450
REMARK  179  A    between atoms: _450  and  _451
REMARK  180  A    between atoms: _451  and  _452
REMARK  181  A    between atoms: _461  and  _463
REMARK  182  A    between atoms: _463  and  _464
REMARK  183  A    between atoms: _463  and  _466
REMARK  184  A    between atoms: _466  and  _467
REMARK  185  A    between atoms: _472  and  _473
REMARK  186  A    between atoms: _475  and  _477
REMARK  187  A    between atoms: _477  and  _478
REMARK  188  A    between atoms: _480  and  _482
REMARK  189  A    between atoms: _482  and  _483
REMARK  190  A    between atoms: _482  and  _485
REMARK  191  A    between atoms: _485  and  _486
REMARK  192  A    between atoms: _491  and  _492
REMARK  193  A    between atoms: _494  and  _496
REMARK  194  A    between atoms: _496  and  _497
REMARK  195  A    between atoms: _496  and  _499
REMARK  196  A    between atoms: _499  and  _500
REMARK  197  A    between atoms: _500  and  _501
REMARK  198  A    between atoms: _504  and  _506
REMARK  199  A    between atoms: _506  and  _507
REMARK  200  A    between atoms: _506  and  _509
REMARK  201  A    between atoms: _509  and  _510
REMARK  202  A    between atoms: _516  and  _518
REMARK  203  A    between atoms: _518  and  _519
REMARK  204  A    between atoms: _522  and  _524
REMARK  205  A    between atoms: _524  and  _525
REMARK  206  A    between atoms: _524  and  _527
REMARK  207  A    between atoms: _527  and  _528
REMARK  208  A    between atoms: _533  and  _534
REMARK  209  A    between atoms: _536  and  _538
REMARK  210  A    between atoms: _538  and  _539
REMARK  211  A    between atoms: _538  and  _541
REMARK  212  A    between atoms: _541  and  _542
REMARK  213  A    between atoms: _547  and  _548
REMARK  214  A    between atoms: _550  and  _552
REMARK  215  A    between atoms: _552  and  _553
REMARK  216  A    between atoms: _552  and  _555
REMARK  217  A    between atoms: _555  and  _556
REMARK  218  A    between atoms: _559  and  _561
REMARK  219  A    between atoms: _561  and  _562
REMARK  220  A    between atoms: _561  and  _564
REMARK  221  A    between atoms: _564  and  _565
REMARK  222  A    between atoms: _575  and  _577
REMARK  223  A    between atoms: _577  and  _578
REMARK  224  A    between atoms: _581  and  _583
REMARK  225  A    between atoms: _583  and  _584
REMARK  226  A    between atoms: _587  and  _589
REMARK  227  A    between atoms: _589  and  _590
REMARK  228  A    between atoms: _589  and  _592
REMARK  229  A    between atoms: _592  and  _593
REMARK  230  A    between atoms: _593  and  _594
REMARK  231  A    between atoms: _599  and  _601
REMARK  232  A    between atoms: _601  and  _602
REMARK  233  A    between atoms: _601  and  _604
REMARK  234  A    between atoms: _604  and  _605
REMARK  235  A    between atoms: _608  and  _610
REMARK  236  A    between atoms: _610  and  _611
REMARK  237  A    between atoms: _610  and  _613
REMARK  238  A    between atoms: _613  and  _614
REMARK  239  A    between atoms: _617  and  _619
REMARK  240  A    between atoms: _619  and  _620
REMARK  241  A    between atoms: _619  and  _622
REMARK  242  A    between atoms: _622  and  _623
REMARK  243  A    between atoms: _623  and  _624
REMARK  244  A    between atoms: _624  and  _625
REMARK  245  A    between atoms: _634  and  _636
REMARK  246  A    between atoms: _636  and  _637
REMARK  247  A    between atoms: _636  and  _639
REMARK  248  A    between atoms: _639  and  _640
REMARK  249  A    between atoms: _640  and  _641
REMARK  250  A    between atoms: _641  and  _642
REMARK  251  A    between atoms: _651  and  _653
REMARK  252  A    between atoms: _653  and  _654
REMARK  253  A    between atoms: _653  and  _656
REMARK  254  A    between atoms: _656  and  _657
REMARK  255  A    between atoms: _657  and  _658
REMARK  256  A    between atoms: _658  and  _659
REMARK  257  A    between atoms: _659  and  _660
REMARK  258  A    between atoms: _664  and  _666
REMARK  259  A    between atoms: _666  and  _667
REMARK  260  A    between atoms: _666  and  _669
REMARK  261  A    between atoms: _669  and  _670
REMARK  262  A    between atoms: _680  and  _682
REMARK  263  A    between atoms: _682  and  _683
REMARK  264  A    between atoms: _682  and  _685
REMARK  265  A    between atoms: _685  and  _686
REMARK  266  A    between atoms: _686  and  _687
REMARK  267  A    between atoms: _690  and  _692
REMARK  268  A    between atoms: _692  and  _693
REMARK  269  A    between atoms: _692  and  _695
REMARK  270  A    between atoms: _695  and  _696
REMARK  271  A    between atoms: _696  and  _697
REMARK  272  A    between atoms: _702  and  _704
REMARK  273  A    between atoms: _704  and  _705
REMARK  274  A    between atoms: _708  and  _710
REMARK  275  A    between atoms: _710  and  _711
REMARK  276  A    between atoms: _713  and  _715
REMARK  277  A    between atoms: _715  and  _716
REMARK  278  A    between atoms: _719  and  _721
REMARK  279  A    between atoms: _721  and  _722
REMARK  280  A    between atoms: _725  and  _727
REMARK  281  A    between atoms: _727  and  _728
REMARK  282  A    between atoms: _727  and  _730
REMARK  283  A    between atoms: _730  and  _731
REMARK  284  A    between atoms: _731  and  _732
REMARK  285  A    between atoms: _735  and  _737
REMARK  286  A    between atoms: _737  and  _738
REMARK  287  A    between atoms: _737  and  _740
REMARK  288  A    between atoms: _740  and  _741
REMARK  289  A    between atoms: _746  and  _747
REMARK  290  A    between atoms: _749  and  _751
REMARK  291  A    between atoms: _751  and  _752
REMARK  292  A    between atoms: _751  and  _754
REMARK  293  A    between atoms: _754  and  _755
REMARK  294  A    between atoms: _760  and  _761
REMARK  295  A    between atoms: _763  and  _765
REMARK  296  A    between atoms: _765  and  _766
REMARK  297  A    between atoms: _765  and  _768
REMARK  298  A    between atoms: _768  and  _769
REMARK  299  A    between atoms: _769  and  _770
REMARK  300  A    between atoms: _770  and  _771
REMARK  301  A    between atoms: _780  and  _782
REMARK  302  A    between atoms: _782  and  _783
REMARK  303  A    between atoms: _786  and  _788
REMARK  304  A    between atoms: _788  and  _789
REMARK  305  A    between atoms: _788  and  _791
REMARK  306  A    between atoms: _791  and  _792
REMARK  307  A    between atoms: _797  and  _798
REMARK  308  A    between atoms: _800  and  _802
REMARK  309  A    between atoms: _802  and  _803
REMARK  310  A    between atoms: _802  and  _805
REMARK  311  A    between atoms: _805  and  _806
REMARK  312  A    between atoms: _809  and  _811
REMARK  313  A    between atoms: _811  and  _812
REMARK  314  A    between atoms: _811  and  _814
REMARK  315  A    between atoms: _814  and  _815
REMARK  316  A    between atoms: _815  and  _816
REMARK  317  A    between atoms: _819  and  _821
REMARK  318  A    between atoms: _821  and  _822
REMARK  319  A    between atoms: _821  and  _824
REMARK  320  A    between atoms: _826  and  _828
REMARK  321  A    between atoms: _828  and  _829
REMARK  322  A    between atoms: _828  and  _831
REMARK  323  A    between atoms: _834  and  _836
REMARK  324  A    between atoms: _836  and  _837
REMARK  325  A    between atoms: _836  and  _839
REMARK  326  A    between atoms: _839  and  _840
REMARK  327  A    between atoms: _840  and  _841
REMARK  328  A    between atoms: _844  and  _846
REMARK  329  A    between atoms: _846  and  _847
REMARK  330  A    between atoms: _846  and  _849
REMARK  331  A    between atoms: _849  and  _850
REMARK  332  A    between atoms: _860  and  _862
REMARK  333  A    between atoms: _862  and  _863
REMARK  334  A    between atoms: _862  and  _865
REMARK  335  A    between atoms: _865  and  _866
REMARK  336  A    between atoms: _869  and  _871
REMARK  337  A    between atoms: _871  and  _872
REMARK  338  A    between atoms: _871  and  _874
REMARK  339  A    between atoms: _874  and  _875
REMARK  340  A    between atoms: _875  and  _876
REMARK  341  A    between atoms: _876  and  _877
REMARK  342  A    between atoms: _886  and  _888
REMARK  343  A    between atoms: _888  and  _889
REMARK  344  A    between atoms: _888  and  _891
REMARK  345  A    between atoms: _891  and  _892
REMARK  346  A    between atoms: _897  and  _898
REMARK                            x       y       z     vdW  Elec       q    Type
REMARK                         _______ _______ _______ _____ _____    ______ ____
ROOT
ATOM      1  C   GLU A  10      16.555  -4.251   4.315  0.00  0.00    +0.241 C 
ATOM      2  N   GLN A  11      16.837  -5.075   5.321  0.00  0.00    -0.297 N 
ATOM      3  H   GLN A  11      16.087  -5.327   5.995  0.00  0.00    +0.150 HD
ATOM      4  O   GLU A  10      17.388  -3.914   3.470  0.00  0.00    -0.273 OA
ENDROOT
BRANCH   2   5
ATOM      5  CA  GLN A  11      18.177  -5.635   5.502  0.00  0.00    +0.149 C 
BRANCH   5   6
ATOM      6  C   GLN A  11      18.536  -6.624   4.398  0.00  0.00    +0.241 C 
ATOM      7  O   GLN A  11      19.707  -6.786   4.055  0.00  0.00    -0.273 OA
ATOM      8  N   ALA A  12      17.524  -7.277   3.836  0.00  0.00    -0.297 N 
ATOM      9  H   ALA A  12      16.553  -7.090   4.158  0.00  0.00    +0.150 HD
BRANCH   8  10
ATOM     10  CA  ALA A  12      17.753  -8.251   2.776  0.00  0.00    +0.149 C 
ATOM     11  CB  ALA A  12      16.821  -9.434   2.954  0.00  0.00    +0.031 C 
BRANCH  10  12
ATOM     12  C   ALA A  12      17.582  -7.659   1.379  0.00  0.00    +0.241 C 
ATOM     13  N   GLY A  13      17.281  -6.365   1.306  0.00  0.00    -0.295 N 
ATOM     14  H   GLY A  13      17.178  -5.809   2.179  0.00  0.00    +0.150 HD
ATOM     15  O   ALA A  12      17.719  -8.368   0.382  0.00  0.00    -0.273 OA
BRANCH  13  16
ATOM     16  CA  GLY A  13      17.095  -5.723   0.015  0.00  0.00    +0.176 C 
BRANCH  16  17
ATOM     17  C   GLY A  13      15.967  -6.323  -0.808  0.00  0.00    +0.243 C 
ATOM     18  N   ALA A  14      14.863  -6.649  -0.140  0.00  0.00    -0.297 N 
ATOM     19  H   ALA A  14      14.830  -6.474   0.885  0.00  0.00    +0.150 HD
ATOM     20  O   GLY A  13      16.087  -6.479  -2.029  0.00  0.00    -0.273 OA
BRANCH  18  21
ATOM     21  CA  ALA A  14      13.691  -7.245  -0.788  0.00  0.00    +0.149 C 
ATOM     22  CB  ALA A  14      12.662  -7.653   0.270  0.00  0.00    +0.031 C 
BRANCH  21  23
ATOM     23  C   ALA A  14      13.022  -6.335  -1.823  0.00  0.00    +0.241 C 
ATOM     24  N   ALA A  15      13.082  -5.029  -1.596  0.00  0.00    -0.297 N 
ATOM     25  H   ALA A  15      13.569  -4.681  -0.746  0.00  0.00    +0.150 HD
ATOM     26  O   ALA A  14      12.451  -6.817  -2.804  0.00  0.00    -0.273 OA
BRANCH  24  27
ATOM     27  CA  ALA A  15      12.476  -4.071  -2.518  0.00  0.00    +0.149 C 
ATOM     28  CB  ALA A  15      12.600  -2.654  -1.968  0.00  0.00    +0.031 C 
BRANCH  27  29
ATOM     29  C   ALA A  15      13.118  -4.156  -3.900  0.00  0.00    +0.241 C 
ATOM     30  N   GLU A  16      14.439  -4.257  -3.936  0.00  0.00    -0.297 N 
ATOM     31  H   GLU A  16      14.982  -4.273  -3.049  0.00  0.00    +0.150 HD
ATOM     32  O   ALA A  15      12.434  -4.124  -4.922  0.00  0.00    -0.273 OA
BRANCH  30  33
ATOM     33  CA  GLU A  16      15.132  -4.346  -5.210  0.00  0.00    +0.149 C 
BRANCH  33  34
ATOM     34  C   GLU A  16      14.812  -5.671  -5.898  0.00  0.00    +0.241 C 
ATOM     35  N   TYR A  17      14.738  -6.728  -5.102  0.00  0.00    -0.297 N 
ATOM     36  H   TYR A  17      14.914  -6.605  -4.084  0.00  0.00    +0.150 HD
ATOM     37  O   GLU A  16      14.642  -5.731  -7.118  0.00  0.00    -0.273 OA
BRANCH  35  38
ATOM     38  CA  TYR A  17      14.419  -8.052  -5.606  0.00  0.00    +0.153 C 
BRANCH  38  39
ATOM     39  C   TYR A  17      13.095  -8.009  -6.375  0.00  0.00    +0.241 C 
ATOM     40  N   TYR A  18      12.034  -7.552  -5.710  0.00  0.00    -0.297 N 
ATOM     41  H   TYR A  18      12.150  -7.248  -4.722  0.00  0.00    +0.150 HD
ATOM     42  O   TYR A  17      13.046  -8.370  -7.547  0.00  0.00    -0.273 OA
BRANCH  40  43
ATOM     43  CA  TYR A  18      10.712  -7.466  -6.329  0.00  0.00    +0.153 C 
BRANCH  43  44
ATOM     44  C   TYR A  18      10.672  -6.465  -7.481  0.00  0.00    +0.241 C 
ATOM     45  N   ARG A  19      11.397  -5.363  -7.331  0.00  0.00    -0.297 N 
ATOM     46  H   ARG A  19      11.951  -5.229  -6.461  0.00  0.00    +0.150 HD
ATOM     47  O   TYR A  18       9.986  -6.680  -8.484  0.00  0.00    -0.273 OA
BRANCH  45  48
ATOM     48  CA  ARG A  19      11.428  -4.340  -8.364  0.00  0.00    +0.149 C 
BRANCH  48  49
ATOM     49  C   ARG A  19      11.998  -4.902  -9.664  0.00  0.00    +0.241 C 
ATOM     50  N   ALA A  20      12.950  -5.825  -9.549  0.00  0.00    -0.297 N 
ATOM     51  H   ALA A  20      13.268  -6.117  -8.603  0.00  0.00    +0.150 HD
ATOM     52  O   ARG A  19      11.571  -4.512 -10.755  0.00  0.00    -0.273 OA
BRANCH  50  53
ATOM     53  CA  ALA A  20      13.556  -6.435 -10.731  0.00  0.00    +0.149 C 
ATOM     54  CB  ALA A  20      14.665  -7.415 -10.322  0.00  0.00    +0.031 C 
BRANCH  53  55
ATOM     55  C   ALA A  20      12.493  -7.154 -11.557  0.00  0.00    +0.241 C 
ATOM     56  N   TYR A  21      11.649  -7.940 -10.890  0.00  0.00    -0.297 N 
ATOM     57  H   TYR A  21      11.760  -8.045  -9.861  0.00  0.00    +0.150 HD
ATOM     58  O   ALA A  20      12.438  -6.997 -12.780  0.00  0.00    -0.273 OA
BRANCH  56  59
ATOM     59  CA  TYR A  21      10.566  -8.661 -11.570  0.00  0.00    +0.153 C 
BRANCH  59  60
ATOM     60  C   TYR A  21       9.576  -7.692 -12.216  0.00  0.00    +0.241 C 
ATOM     61  N   LEU A  22       9.072  -6.749 -11.429  0.00  0.00    -0.298 N 
ATOM     62  H   LEU A  22       9.374  -6.699 -10.435  0.00  0.00    +0.150 HD
ATOM     63  O   TYR A  21       9.267  -7.805 -13.398  0.00  0.00    -0.273 OA
BRANCH  61  64
ATOM     64  CA  LEU A  22       8.102  -5.781 -11.931  0.00  0.00    +0.137 C 
BRANCH  64  65
ATOM     65  C   LEU A  22       8.663  -5.019 -13.124  0.00  0.00    +0.227 C 
ATOM     66  O   LEU A  22       7.989  -4.838 -14.134  0.00  0.00    -0.286 OA
ENDBRANCH  64  65
BRANCH  64  67
ATOM     67  CB  LEU A  22       7.707  -4.807 -10.813  0.00  0.00    +0.028 C 
BRANCH  67  68
ATOM     68  CG  LEU A  22       7.175  -5.464  -9.532  0.00  0.00    +0.002 C 
ATOM     69  CD2 LEU A  22       7.263  -4.499  -8.353  0.00  0.00    +0.000 C 
ATOM     70  CD1 LEU A  22       5.747  -5.933  -9.758  0.00  0.00    +0.000 C 
ENDBRANCH  67  68
ENDBRANCH  64  67
ENDBRANCH  61  64
ENDBRANCH  59  60
BRANCH  59  71
ATOM     71  CB  TYR A  21       9.793  -9.557 -10.582  0.00  0.00    +0.055 C 
BRANCH  71  72
ATOM     72  CG  TYR A  21       8.429 -10.002 -11.103  0.00  0.00    -0.020 A 
ATOM     73  CD2 TYR A  21       7.262  -9.348 -10.706  0.00  0.00    -0.001 A 
ATOM     74  CE2 TYR A  21       6.015  -9.708 -11.230  0.00  0.00    +0.036 A 
ATOM     75  CZ  TYR A  21       5.928 -10.735 -12.161  0.00  0.00    +0.134 A 
ATOM     76  CE1 TYR A  21       7.068 -11.406 -12.567  0.00  0.00    +0.036 A 
ATOM     77  CD1 TYR A  21       8.312 -11.036 -12.037  0.00  0.00    -0.001 A 
BRANCH  75  78
ATOM     78  OH  TYR A  21       4.705 -11.061 -12.702  0.00  0.00    -0.506 OA
ATOM     79  HH  TYR A  21       4.817 -11.807 -13.343  0.00  0.00    +0.292 HD
ENDBRANCH  75  78
ENDBRANCH  71  72
ENDBRANCH  59  71
ENDBRANCH  56  59
ENDBRANCH  53  55
ENDBRANCH  50  53
ENDBRANCH  48  49
BRANCH  48  80
ATOM     80  CB  ARG A  19      12.255  -3.139  -7.900  0.00  0.00    +0.033 C 
BRANCH  80  81
ATOM     81  CG  ARG A  19      12.232  -1.953  -8.858  0.00  0.00    +0.045 C 
BRANCH  81  82
ATOM     82  CD  ARG A  19      12.925  -0.748  -8.238  0.00  0.00    +0.174 C 
BRANCH  82  83
ATOM     83  NE  ARG A  19      14.370  -0.942  -8.152  0.00  0.00    -0.265 N 
ATOM     84  CZ  ARG A  19      15.075  -0.893  -7.029  0.00  0.00    +0.342 C 
ATOM     85  NH2 ARG A  19      14.475  -0.655  -5.863  0.00  0.00    -0.292 N 
ATOM     86 HH21 ARG A  19      15.035  -0.618  -4.988  0.00  0.00    +0.255 HD
ATOM     87 HH22 ARG A  19      13.446  -0.506  -5.828  0.00  0.00    +0.255 HD
ATOM     88  NH1 ARG A  19      16.385  -1.079  -7.078  0.00  0.00    -0.292 N 
ATOM     89 HH11 ARG A  19      16.948  -1.043  -6.205  0.00  0.00    +0.255 HD
ATOM     90 HH12 ARG A  19      16.851  -1.261  -7.990  0.00  0.00    +0.255 HD
ATOM     91  HE  ARG A  19      14.884  -1.133  -9.036  0.00  0.00    +0.259 HD
ENDBRANCH  82  83
ENDBRANCH  81  82
ENDBRANCH  80  81
ENDBRANCH  48  80
ENDBRANCH  45  48
ENDBRANCH  43  44
BRANCH  43  92
ATOM     92  CB  TYR A  18       9.652  -7.070  -5.297  0.00  0.00    +0.055 C 
BRANCH  92  93
ATOM     93  CG  TYR A  18       9.468  -8.039  -4.140  0.00  0.00    -0.020 A 
ATOM     94  CD2 TYR A  18       9.675  -7.621  -2.825  0.00  0.00    -0.001 A 
ATOM     95  CE2 TYR A  18       9.482  -8.486  -1.747  0.00  0.00    +0.036 A 
ATOM     96  CZ  TYR A  18       9.076  -9.789  -1.982  0.00  0.00    +0.134 A 
ATOM     97  CE1 TYR A  18       8.862 -10.237  -3.280  0.00  0.00    +0.036 A 
ATOM     98  CD1 TYR A  18       9.061  -9.358  -4.354  0.00  0.00    -0.001 A 
BRANCH  96  99
ATOM     99  OH  TYR A  18       8.893 -10.638  -0.911  0.00  0.00    -0.506 OA
ATOM    100  HH  TYR A  18       8.605 -11.526  -1.241  0.00  0.00    +0.292 HD
ENDBRANCH  96  99
ENDBRANCH  92  93
ENDBRANCH  43  92
ENDBRANCH  40  43
ENDBRANCH  38  39
BRANCH  38 101
ATOM    101  CB  TYR A  17      14.304  -9.031  -4.437  0.00  0.00    +0.055 C 
BRANCH 101 102
ATOM    102  CG  TYR A  17      14.103 -10.471  -4.847  0.00  0.00    -0.020 A 
ATOM    103  CD2 TYR A  17      13.005 -11.199  -4.385  0.00  0.00    -0.001 A 
ATOM    104  CE2 TYR A  17      12.829 -12.537  -4.734  0.00  0.00    +0.036 A 
ATOM    105  CZ  TYR A  17      13.760 -13.155  -5.554  0.00  0.00    +0.134 A 
ATOM    106  CE1 TYR A  17      14.858 -12.449  -6.028  0.00  0.00    +0.036 A 
ATOM    107  CD1 TYR A  17      15.023 -11.113  -5.673  0.00  0.00    -0.001 A 
BRANCH 105 108
ATOM    108  OH  TYR A  17      13.607 -14.481  -5.887  0.00  0.00    -0.506 OA
ATOM    109  HH  TYR A  17      12.780 -14.831  -5.471  0.00  0.00    +0.292 HD
ENDBRANCH 105 108
ENDBRANCH 101 102
ENDBRANCH  38 101
ENDBRANCH  35  38
ENDBRANCH  33  34
BRANCH  33 110
ATOM    110  CB  GLU A  16      16.634  -4.218  -4.996  0.00  0.00    +0.041 C 
BRANCH 110 111
ATOM    111  CG  GLU A  16      17.430  -4.327  -6.275  0.00  0.00    +0.116 C 
BRANCH 111 112
ATOM    112  CD  GLU A  16      18.823  -3.773  -6.121  0.00  0.00    +0.365 C 
ATOM    113  OE2 GLU A  16      19.519  -4.167  -5.156  0.00  0.00    -0.246 OA
ATOM    114  OE1 GLU A  16      19.219  -2.943  -6.969  0.00  0.00    -0.246 OA
ENDBRANCH 111 112
ENDBRANCH 110 111
ENDBRANCH  33 110
ENDBRANCH  30  33
ENDBRANCH  27  29
ENDBRANCH  24  27
ENDBRANCH  21  23
ENDBRANCH  18  21
ENDBRANCH  16  17
ENDBRANCH  13  16
ENDBRANCH  10  12
ENDBRANCH   8  10
ENDBRANCH   5   6
BRANCH   5 115
ATOM    115  CB  GLN A  11      18.276  -6.322   6.868  0.00  0.00    +0.039 C 
BRANCH 115 116
ATOM    116  CG  GLN A  11      18.104  -5.365   8.035  0.00  0.00    +0.087 C 
BRANCH 116 117
ATOM    117  CD  GLN A  11      18.231  -6.034   9.398  0.00  0.00    +0.219 C 
ATOM    118  OE1 GLN A  11      18.267  -5.356  10.428  0.00  0.00    -0.275 OA
ATOM    119  NE2 GLN A  11      18.298  -7.360   9.412  0.00  0.00    -0.329 N 
ATOM    120 HE21 GLN A  11      18.384  -7.867  10.316  0.00  0.00    +0.145 HD
ATOM    121 HE22 GLN A  11      18.264  -7.892   8.519  0.00  0.00    +0.145 HD
ENDBRANCH 116 117
ENDBRANCH 115 116
ENDBRANCH   5 115
ENDBRANCH   2   5
BRANCH   1 122
ATOM    122  CA  GLU A  10      15.115  -3.745   4.245  0.00  0.00    +0.149 C 
BRANCH 122 124
ATOM    123  C   TRP A   9      14.045  -5.871   3.771  0.00  0.00    +0.241 C 
ATOM    124  N   GLU A  10      14.226  -4.848   4.604  0.00  0.00    -0.297 N 
ATOM    125  H   GLU A  10      13.730  -4.834   5.518  0.00  0.00    +0.150 HD
ATOM    126  O   TRP A   9      14.582  -5.929   2.656  0.00  0.00    -0.273 OA
BRANCH 123 127
ATOM    127  CA  TRP A   9      13.129  -6.999   4.251  0.00  0.00    +0.153 C 
BRANCH 127 130
ATOM    128  C   LYS A   8      14.160  -7.715   6.332  0.00  0.00    +0.241 C 
ATOM    129  O   LYS A   8      15.153  -8.127   5.719  0.00  0.00    -0.273 OA
ATOM    130  N   TRP A   9      13.124  -7.153   5.711  0.00  0.00    -0.297 N 
ATOM    131  H   TRP A   9      12.307  -6.822   6.263  0.00  0.00    +0.150 HD
BRANCH 128 132
ATOM    132  CA  LYS A   8      14.088  -7.830   7.858  0.00  0.00    +0.149 C 
BRANCH 132 134
ATOM    133  C   ARG A   7      13.782  -5.486   8.401  0.00  0.00    +0.241 C 
ATOM    134  N   LYS A   8      13.334  -6.736   8.463  0.00  0.00    -0.297 N 
ATOM    135  H   LYS A   8      12.436  -6.937   8.948  0.00  0.00    +0.150 HD
ATOM    136  O   ARG A   7      14.830  -5.189   7.818  0.00  0.00    -0.273 OA
BRANCH 133 137
ATOM    137  CA  ARG A   7      12.919  -4.410   9.072  0.00  0.00    +0.149 C 
BRANCH 137 139
ATOM    138  C   ARG A   6      11.270  -4.457   7.268  0.00  0.00    +0.241 C 
ATOM    139  N   ARG A   7      11.555  -4.499   8.564  0.00  0.00    -0.297 N 
ATOM    140  H   ARG A   7      10.774  -4.599   9.244  0.00  0.00    +0.150 HD
ATOM    141  O   ARG A   6      12.127  -4.330   6.400  0.00  0.00    -0.273 OA
BRANCH 138 142
ATOM    142  CA  ARG A   6       9.784  -4.575   6.899  0.00  0.00    +0.149 C 
BRANCH 142 144
ATOM    143  C   THR A   5       9.624  -6.886   7.610  0.00  0.00    +0.243 C 
ATOM    144  N   ARG A   6       9.135  -5.648   7.646  0.00  0.00    -0.297 N 
ATOM    145  H   ARG A   6       8.285  -5.444   8.210  0.00  0.00    +0.150 HD
ATOM    146  O   THR A   5      10.642  -7.182   6.967  0.00  0.00    -0.273 OA
BRANCH 143 147
ATOM    147  CA  THR A   5       8.868  -7.943   8.415  0.00  0.00    +0.176 C 
BRANCH 147 150
ATOM    148  C   ILE A   4       9.656  -7.233  10.625  0.00  0.00    +0.241 C 
ATOM    149  O   ILE A   4      10.852  -7.320  10.316  0.00  0.00    -0.273 OA
ATOM    150  N   THR A   5       8.655  -7.508   9.792  0.00  0.00    -0.295 N 
ATOM    151  H   THR A   5       7.679  -7.409  10.137  0.00  0.00    +0.150 HD
BRANCH 148 152
ATOM    152  CA  ILE A   4       9.232  -6.776  12.014  0.00  0.00    +0.149 C 
BRANCH 152 154
ATOM    153  C   GLN A   3       8.622  -4.578  11.230  0.00  0.00    +0.241 C 
ATOM    154  N   ILE A   4       8.252  -5.709  11.817  0.00  0.00    -0.297 N 
ATOM    155  H   ILE A   4       7.270  -5.836  12.135  0.00  0.00    +0.150 HD
ATOM    156  O   GLN A   3       9.778  -4.377  10.864  0.00  0.00    -0.273 OA
BRANCH 153 157
ATOM    157  CA  GLN A   3       7.545  -3.518  11.010  0.00  0.00    +0.149 C 
BRANCH 157 159
ATOM    158  C   ALA A   2       5.883  -4.912   9.943  0.00  0.00    +0.241 C 
ATOM    159  N   GLN A   3       6.205  -4.091  10.939  0.00  0.00    -0.297 N 
ATOM    160  H   GLN A   3       5.501  -3.857  11.668  0.00  0.00    +0.150 HD
ATOM    161  O   ALA A   2       6.671  -5.219   9.041  0.00  0.00    -0.273 OA
BRANCH 158 162
ATOM    162  CA  ALA A   2       4.469  -5.454   9.946  0.00  0.00    +0.149 C 
ATOM    163  CB  ALA A   2       3.574  -4.538   9.121  0.00  0.00    +0.031 C 
BRANCH 162 166
ATOM    164  C   ALA A   1       4.510  -6.435  12.166  0.00  0.00    +0.238 C 
ATOM    165  O   ALA A   1       5.500  -7.112  11.886  0.00  0.00    -0.274 OA
ATOM    166  N   ALA A   2       3.943  -5.598  11.302  0.00  0.00    -0.297 N 
ATOM    167  H   ALA A   2       3.116  -5.040  11.595  0.00  0.00    +0.150 HD
BRANCH 164 168
ATOM    168  CA  ALA A   1       3.877  -6.519  13.548  0.00  0.00    +0.145 C 
ATOM    169  CB  ALA A   1       2.660  -7.434  13.508  0.00  0.00    +0.028 C 
BRANCH 168 170
ATOM    170  N   ALA A   1       3.501  -5.184  13.984  0.00  0.00    -0.238 NA
ATOM    171  H   ALA A   1       2.499  -4.931  14.104  0.00  0.00    +0.142 HD
ENDBRANCH 168 170
ENDBRANCH 164 168
ENDBRANCH 162 166
ENDBRANCH 158 162
ENDBRANCH 157 159
BRANCH 157 172
ATOM    172  CB  GLN A   3       7.602  -2.424  12.085  0.00  0.00    +0.039 C 
BRANCH 172 173
ATOM    173  CG  GLN A   3       6.950  -1.131  11.602  0.00  0.00    +0.087 C 
BRANCH 173 174
ATOM    174  CD  GLN A   3       6.968  -0.022  12.633  0.00  0.00    +0.219 C 
ATOM    175  OE1 GLN A   3       8.013   0.311  13.193  0.00  0.00    -0.275 OA
ATOM    176  NE2 GLN A   3       5.802   0.569  12.879  0.00  0.00    -0.329 N 
ATOM    177 HE21 GLN A   3       5.748   1.346  13.568  0.00  0.00    +0.145 HD
ATOM    178 HE22 GLN A   3       4.944   0.254  12.382  0.00  0.00    +0.145 HD
ENDBRANCH 173 174
ENDBRANCH 172 173
ENDBRANCH 157 172
ENDBRANCH 153 157
ENDBRANCH 152 154
BRANCH 152 179
ATOM    179  CB  ILE A   4       8.634  -7.972  12.780  0.00  0.00    +0.027 C 
ATOM    180  CG2 ILE A   4       9.606  -9.163  12.739  0.00  0.00    +0.002 C 
BRANCH 179 181
ATOM    181  CG1 ILE A   4       8.356  -7.563  14.230  0.00  0.00    +0.002 C 
ATOM    182  CD1 ILE A   4       7.525  -8.568  15.000  0.00  0.00    +0.000 C 
ENDBRANCH 179 181
ENDBRANCH 152 179
ENDBRANCH 148 152
ENDBRANCH 147 150
BRANCH 147 183
ATOM    183  CB  THR A   5       7.521  -8.230   7.712  0.00  0.00    +0.137 C 
ATOM    184  CG2 THR A   5       7.754  -8.588   6.242  0.00  0.00    +0.034 C 
BRANCH 183 185
ATOM    185  OG1 THR A   5       6.857  -9.323   8.368  0.00  0.00    -0.382 OA
ATOM    186  HG1 THR A   5       7.430 -10.129   8.324  0.00  0.00    +0.210 HD
ENDBRANCH 183 185
ENDBRANCH 147 183
ENDBRANCH 143 147
ENDBRANCH 142 144
BRANCH 142 187
ATOM    187  CB  ARG A   6       9.083  -3.236   7.153  0.00  0.00    +0.033 C 
BRANCH 187 188
ATOM    188  CG  ARG A   6       9.793  -2.075   6.484  0.00  0.00    +0.045 C 
BRANCH 188 189
ATOM    189  CD  ARG A   6       9.825  -0.888   7.418  0.00  0.00    +0.174 C 
BRANCH 189 190
ATOM    190  NE  ARG A   6       8.668  -0.034   7.249  0.00  0.00    -0.265 N 
ATOM    191  CZ  ARG A   6       8.252   0.854   8.142  0.00  0.00    +0.342 C 
ATOM    192  NH2 ARG A   6       8.896   1.004   9.291  0.00  0.00    -0.292 N 
ATOM    193 HH21 ARG A   6       8.564   1.702   9.986  0.00  0.00    +0.255 HD
ATOM    194 HH22 ARG A   6       9.734   0.423   9.497  0.00  0.00    +0.255 HD
ATOM    195  NH1 ARG A   6       7.188   1.601   7.873  0.00  0.00    -0.292 N 
ATOM    196 HH11 ARG A   6       6.854   2.300   8.567  0.00  0.00    +0.255 HD
ATOM    197 HH12 ARG A   6       6.688   1.487   6.968  0.00  0.00    +0.255 HD
ATOM    198  HE  ARG A   6       8.126  -0.123   6.366  0.00  0.00    +0.259 HD
ENDBRANCH 189 190
ENDBRANCH 188 189
ENDBRANCH 187 188
ENDBRANCH 142 187
ENDBRANCH 138 142
ENDBRANCH 137 139
BRANCH 137 199
ATOM    199  CB  ARG A   7      12.889  -4.612  10.588  0.00  0.00    +0.033 C 
BRANCH 199 200
ATOM    200  CG  ARG A   7      13.970  -3.913  11.392  0.00  0.00    +0.045 C 
BRANCH 200 201
ATOM    201  CD  ARG A   7      15.331  -4.480  11.101  0.00  0.00    +0.174 C 
BRANCH 201 202
ATOM    202  NE  ARG A   7      15.919  -3.885   9.908  0.00  0.00    -0.265 N 
ATOM    203  CZ  ARG A   7      16.120  -2.582   9.751  0.00  0.00    +0.342 C 
ATOM    204  NH2 ARG A   7      15.771  -1.739  10.717  0.00  0.00    -0.292 N 
ATOM    205 HH21 ARG A   7      15.342  -2.100  11.593  0.00  0.00    +0.255 HD
ATOM    206 HH22 ARG A   7      15.927  -0.718  10.597  0.00  0.00    +0.255 HD
ATOM    207  NH1 ARG A   7      16.685  -2.125   8.635  0.00  0.00    -0.292 N 
ATOM    208 HH11 ARG A   7      16.842  -1.104   8.512  0.00  0.00    +0.255 HD
ATOM    209 HH12 ARG A   7      16.969  -2.789   7.886  0.00  0.00    +0.255 HD
ATOM    210  HE  ARG A   7      16.198  -4.519   9.133  0.00  0.00    +0.259 HD
ENDBRANCH 201 202
ENDBRANCH 200 201
ENDBRANCH 199 200
ENDBRANCH 137 199
ENDBRANCH 133 137
ENDBRANCH 132 134
BRANCH 132 211
ATOM    211  CB  LYS A   8      13.483  -9.182   8.264  0.00  0.00    +0.029 C 
BRANCH 211 212
ATOM    212  CG  LYS A   8      12.278  -9.609   7.444  0.00  0.00    +0.000 C 
BRANCH 212 213
ATOM    213  CD  LYS A   8      11.533 -10.783   8.073  0.00  0.00    -0.024 C 
BRANCH 213 214
ATOM    214  CE  LYS A   8      12.402 -12.011   8.248  0.00  0.00    -0.086 C 
BRANCH 214 215
ATOM    215  NZ  LYS A   8      11.603 -13.139   8.829  0.00  0.00    +0.380 N 
ATOM    216  HZ1 LYS A   8      11.227 -12.855   9.756  0.00  0.00    -0.089 HD
ATOM    217  HZ2 LYS A   8      12.214 -13.973   8.942  0.00  0.00    -0.089 HD
ATOM    218  HZ3 LYS A   8      10.815 -13.369   8.190  0.00  0.00    -0.089 HD
ENDBRANCH 214 215
ENDBRANCH 213 214
ENDBRANCH 212 213
ENDBRANCH 211 212
ENDBRANCH 132 211
ENDBRANCH 128 132
ENDBRANCH 127 130
BRANCH 127 219
ATOM    219  CB  TRP A   9      11.709  -6.792   3.721  0.00  0.00    +0.057 C 
BRANCH 219 220
ATOM    220  CG  TRP A   9      10.934  -8.080   3.589  0.00  0.00    -0.002 A 
ATOM    221  CD1 TRP A   9      11.292  -9.311   4.069  0.00  0.00    +0.068 A 
ATOM    222  NE1 TRP A   9      10.322 -10.238   3.773  0.00  0.00    -0.352 N 
ATOM    223  HE1 TRP A   9      10.351 -11.246   4.027  0.00  0.00    +0.166 HD
ATOM    224  CE2 TRP A   9       9.310  -9.618   3.089  0.00  0.00    +0.056 A 
ATOM    225  CZ2 TRP A   9       8.117 -10.138   2.578  0.00  0.00    +0.017 A 
ATOM    226  CH2 TRP A   9       7.276  -9.273   1.927  0.00  0.00    +0.001 A 
ATOM    227  CZ3 TRP A   9       7.596  -7.914   1.775  0.00  0.00    +0.000 A 
ATOM    228  CE3 TRP A   9       8.786  -7.394   2.282  0.00  0.00    +0.001 A 
ATOM    229  CD2 TRP A   9       9.662  -8.255   2.952  0.00  0.00    +0.013 A 
ENDBRANCH 219 220
ENDBRANCH 127 219
ENDBRANCH 123 127
ENDBRANCH 122 124
BRANCH 122 230
ATOM    230  CB  GLU A  10      14.924  -2.556   5.199  0.00  0.00    +0.041 C 
BRANCH 230 231
ATOM    231  CG  GLU A  10      13.672  -1.728   4.932  0.00  0.00    +0.116 C 
BRANCH 231 232
ATOM    232  CD  GLU A  10      13.319  -0.781   6.074  0.00  0.00    +0.365 C 
ATOM    233  OE2 GLU A  10      13.998  -0.814   7.122  0.00  0.00    -0.246 OA
ATOM    234  OE1 GLU A  10      12.350  -0.005   5.925  0.00  0.00    -0.246 OA
ENDBRANCH 231 232
ENDBRANCH 230 231
ENDBRANCH 122 230
ENDBRANCH   1 122
TORSDOF 90
REMARK  Name = ../refined-set-2016/3ery/3ery_pocket.pdb
REMARK  346 active torsions:
REMARK  status: ('A' for Active; 'I' for Inactive)
REMARK    1  A    between atoms: _1  and  _3
REMARK    2  A    between atoms: _3  and  _4
REMARK    3  A    between atoms: _3  and  _6
REMARK    4  A    between atoms: _6  and  _7
REMARK    5  A    between atoms: _7  and  _8
REMARK    6  A    between atoms: _10  and  _12
REMARK    7  A    between atoms: _12  and  _13
REMARK    8  A    between atoms: _12  and  _15
REMARK    9  A    between atoms: _15  and  _16
REMARK   10  A    between atoms: _16  and  _17
REMARK   11  A    between atoms: _17  and  _18
REMARK   12  A    between atoms: _27  and  _29
REMARK   13  A    between atoms: _29  and  _30
REMARK   14  A    between atoms: _29  and  _32
REMARK   15  A    between atoms: _32  and  _33
REMARK   16  A    between atoms: _38  and  _39
REMARK   17  A    between atoms: _41  and  _43
REMARK   18  A    between atoms: _43  and  _44
REMARK   19  A    between atoms: _43  and  _46
REMARK   20  A    between atoms: _46  and  _47
REMARK   21  A    between atoms: _52  and  _53
REMARK   22  A    between atoms: _55  and  _57
REMARK   23  A    between atoms: _57  and  _58
REMARK   24  A    between atoms: _57  and  _60
REMARK   25  A    between atoms: _60  and  _61
REMARK   26  A    between atoms: _61  and  _62
REMARK   27  A    between atoms: _65  and  _67
REMARK   28  A    between atoms: _67  and  _68
REMARK   29  A    between atoms: _67  and  _70
REMARK   30  A    between atoms: _70  and  _71
REMARK   31  A    between atoms: _76  and  _77
REMARK   32  A    between atoms: _79  and  _81
REMARK   33  A    between atoms: _81  and  _82
REMARK   34  A    between atoms: _81  and  _84
REMARK   35  A    between atoms: _84  and  _85
REMARK   36  A    between atoms: _87  and  _89
REMARK   37  A    between atoms: _89  and  _90
REMARK   38  A    between atoms: _89  and  _92
REMARK   39  A    between atoms: _95  and  _97
REMARK   40  A    between atoms: _97  and  _98
REMARK   41  A    between atoms: _100  and  _102
REMARK   42  A    between atoms: _102  and  _103
REMARK   43  A    between atoms: _102  and  _105
REMARK   44  A    between atoms: _105  and  _106
REMARK   45  A    between atoms: _112  and  _114
REMARK   46  A    between atoms: _114  and  _115
REMARK   47  A    between atoms: _114  and  _117
REMARK   48  A    between atoms: _120  and  _122
REMARK   49  A    between atoms: _122  and  _123
REMARK   50  A    between atoms: _122  and  _125
REMARK   51  A    between atoms: _125  and  _126
REMARK   52  A    between atoms: _132  and  _134
REMARK   53  A    between atoms: _134  and  _135
REMARK   54  A    between atoms: _134  and  _137
REMARK   55  A    between atoms: _137  and  _138
REMARK   56  A    between atoms: _143  and  _144
REMARK   57  A    between atoms: _146  and  _148
REMARK   58  A    between atoms: _148  and  _149
REMARK   59  A    between atoms: _148  and  _151
REMARK   60  A    between atoms: _151  and  _152
REMARK   61  A    between atoms: _152  and  _153
REMARK   62  A    between atoms: _156  and  _158
REMARK   63  A    between atoms: _158  and  _159
REMARK   64  A    between atoms: _158  and  _161
REMARK   65  A    between atoms: _161  and  _162
REMARK   66  A    between atoms: _162  and  _163
REMARK   67  A    between atoms: _166  and  _168
REMARK   68  A    between atoms: _168  and  _169
REMARK   69  A    between atoms: _168  and  _171
REMARK   70  A    between atoms: _171  and  _172
REMARK   71  A    between atoms: _177  and  _178
REMARK   72  A    between atoms: _180  and  _182
REMARK   73  A    between atoms: _182  and  _183
REMARK   74  A    between atoms: _182  and  _185
REMARK   75  A    between atoms: _185  and  _186
REMARK   76  A    between atoms: _196  and  _198
REMARK   77  A    between atoms: _198  and  _199
REMARK   78  A    between atoms: _198  and  _201
REMARK   79  A    between atoms: _201  and  _202
REMARK   80  A    between atoms: _202  and  _203
REMARK   81  A    between atoms: _206  and  _208
REMARK   82  A    between atoms: _208  and  _209
REMARK   83  A    between atoms: _208  and  _211
REMARK   84  A    between atoms: _211  and  _212
REMARK   85  A    between atoms: _212  and  _213
REMARK   86  A    between atoms: _213  and  _214
REMARK   87  A    between atoms: _223  and  _225
REMARK   88  A    between atoms: _225  and  _226
REMARK   89  A    between atoms: _225  and  _228
REMARK   90  A    between atoms: _228  and  _229
REMARK   91  A    between atoms: _232  and  _234
REMARK   92  A    between atoms: _234  and  _235
REMARK   93  A    between atoms: _234  and  _237
REMARK   94  A    between atoms: _237  and  _238
REMARK   95  A    between atoms: _241  and  _243
REMARK   96  A    between atoms: _243  and  _244
REMARK   97  A    between atoms: _243  and  _246
REMARK   98  A    between atoms: _246  and  _247
REMARK   99  A    between atoms: _247  and  _248
REMARK  100  A    between atoms: _253  and  _255
REMARK  101  A    between atoms: _255  and  _256
REMARK  102  A    between atoms: _255  and  _258
REMARK  103  A    between atoms: _261  and  _263
REMARK  104  A    between atoms: _263  and  _264
REMARK  105  A    between atoms: _267  and  _269
REMARK  106  A    between atoms: _269  and  _270
REMARK  107  A    between atoms: _269  and  _272
REMARK  108  A    between atoms: _272  and  _273
REMARK  109  A    between atoms: _273  and  _274
REMARK  110  A    between atoms: _274  and  _275
REMARK  111  A    between atoms: _275  and  _276
REMARK  112  A    between atoms: _280  and  _282
REMARK  113  A    between atoms: _282  and  _283
REMARK  114  A    between atoms: _285  and  _287
REMARK  115  A    between atoms: _287  and  _288
REMARK  116  A    between atoms: _287  and  _290
REMARK  117  A    between atoms: _290  and  _291
REMARK  118  A    between atoms: _291  and  _292
REMARK  119  A    between atoms: _297  and  _299
REMARK  120  A    between atoms: _299  and  _300
REMARK  121  A    between atoms: _299  and  _302
REMARK  122  A    between atoms: _302  and  _303
REMARK  123  A    between atoms: _303  and  _304
REMARK  124  A    between atoms: _309  and  _311
REMARK  125  A    between atoms: _311  and  _312
REMARK  126  A    between atoms: _311  and  _314
REMARK  127  A    between atoms: _314  and  _315
REMARK  128  A    between atoms: _325  and  _327
REMARK  129  A    between atoms: _327  and  _328
REMARK  130  A    between atoms: _327  and  _330
REMARK  131  A    between atoms: _330  and  _331
REMARK  132  A    between atoms: _337  and  _339
REMARK  133  A    between atoms: _339  and  _340
REMARK  134  A    between atoms: _339  and  _342
REMARK  135  A    between atoms: _345  and  _347
REMARK  136  A    between atoms: _347  and  _348
REMARK  137  A    between atoms: _347  and  _350
REMARK  138  A    between atoms: _350  and  _351
REMARK  139  A    between atoms: _356  and  _358
REMARK  140  A    between atoms: _358  and  _359
REMARK  141  A    between atoms: _358  and  _361
REMARK  142  A    between atoms: _361  and  _362
REMARK  143  A    between atoms: _365  and  _367
REMARK  144  A    between atoms: _367  and  _368
REMARK  145  A    between atoms: _367  and  _370
REMARK  146  A    between atoms: _370  and  _371
REMARK  147  A    between atoms: _371  and  _372
REMARK  148  A    between atoms: _372  and  _373
REMARK  149  A    between atoms: _382  and  _384
REMARK  150  A    between atoms: _384  and  _385
REMARK  151  A    between atoms: _384  and  _387
REMARK  152  A    between atoms: _387  and  _388
REMARK  153  A    between atoms: _391  and  _393
REMARK  154  A    between atoms: _393  and  _394
REMARK  155  A    between atoms: _393  and  _396
REMARK  156  A    between atoms: _396  and  _397
REMARK  157  A    between atoms: _400  and  _402
REMARK  158  A    between atoms: _402  and  _403
REMARK  159  A    between atoms: _402  and  _405
REMARK  160  A    between atoms: _405  and  _406
REMARK  161  A    between atoms: _409  and  _411
REMARK  162  A    between atoms: _411  and  _412
REMARK  163  A    between atoms: _411  and  _414
REMARK  164  A    between atoms: _414  and  _415
REMARK  165  A    between atoms: _420  and  _421
REMARK  166  A    between atoms: _423  and  _425
REMARK  167  A    between atoms: _425  and  _426
REMARK  168  A    between atoms: _425  and  _428
REMARK  169  A    between atoms: _428  and  _429
REMARK  170  A    between atoms: _432  and  _434
REMARK  171  A    between atoms: _434  and  _435
REMARK  172  A    between atoms: _434  and  _437
REMARK  173  A    between atoms: _437  and  _438
REMARK  174  A    between atoms: _438  and  _439
REMARK  175  A    between atoms: _444  and  _446
REMARK  176  A    between atoms: _446  and  _447
REMARK  177  A    between atoms: _446  and  _449
REMARK  178  A    between atoms: _449  and  _450
REMARK  179  A    between atoms: _450  and  _451
REMARK  180  A    between atoms: _451  and  _452
REMARK  181  A    between atoms: _461  and  _463
REMARK  182  A    between atoms: _463  and  _464
REMARK  183  A    between atoms: _463  and  _466
REMARK  184  A    between atoms: _466  and  _467
REMARK  185  A    between atoms: _472  and  _473
REMARK  186  A    between atoms: _475  and  _477
REMARK  187  A    between atoms: _477  and  _478
REMARK  188  A    between atoms: _480  and  _482
REMARK  189  A    between atoms: _482  and  _483
REMARK  190  A    between atoms: _482  and  _485
REMARK  191  A    between atoms: _485  and  _486
REMARK  192  A    between atoms: _491  and  _492
REMARK  193  A    between atoms: _494  and  _496
REMARK  194  A    between atoms: _496  and  _497
REMARK  195  A    between atoms: _496  and  _499
REMARK  196  A    between atoms: _499  and  _500
REMARK  197  A    between atoms: _500  and  _501
REMARK  198  A    between atoms: _504  and  _506
REMARK  199  A    between atoms: _506  and  _507
REMARK  200  A    between atoms: _506  and  _509
REMARK  201  A    between atoms: _509  and  _510
REMARK  202  A    between atoms: _516  and  _518
REMARK  203  A    between atoms: _518  and  _519
REMARK  204  A    between atoms: _522  and  _524
REMARK  205  A    between atoms: _524  and  _525
REMARK  206  A    between atoms: _524  and  _527
REMARK  207  A    between atoms: _527  and  _528
REMARK  208  A    between atoms: _533  and  _534
REMARK  209  A    between atoms: _536  and  _538
REMARK  210  A    between atoms: _538  and  _539
REMARK  211  A    between atoms: _538  and  _541
REMARK  212  A    between atoms: _541  and  _542
REMARK  213  A    between atoms: _547  and  _548
REMARK  214  A    between atoms: _550  and  _552
REMARK  215  A    between atoms: _552  and  _553
REMARK  216  A    between atoms: _552  and  _555
REMARK  217  A    between atoms: _555  and  _556
REMARK  218  A    between atoms: _559  and  _561
REMARK  219  A    between atoms: _561  and  _562
REMARK  220  A    between atoms: _561  and  _564
REMARK  221  A    between atoms: _564  and  _565
REMARK  222  A    between atoms: _575  and  _577
REMARK  223  A    between atoms: _577  and  _578
REMARK  224  A    between atoms: _581  and  _583
REMARK  225  A    between atoms: _583  and  _584
REMARK  226  A    between atoms: _587  and  _589
REMARK  227  A    between atoms: _589  and  _590
REMARK  228  A    between atoms: _589  and  _592
REMARK  229  A    between atoms: _592  and  _593
REMARK  230  A    between atoms: _593  and  _594
REMARK  231  A    between atoms: _599  and  _601
REMARK  232  A    between atoms: _601  and  _602
REMARK  233  A    between atoms: _601  and  _604
REMARK  234  A    between atoms: _604  and  _605
REMARK  235  A    between atoms: _608  and  _610
REMARK  236  A    between atoms: _610  and  _611
REMARK  237  A    between atoms: _610  and  _613
REMARK  238  A    between atoms: _613  and  _614
REMARK  239  A    between atoms: _617  and  _619
REMARK  240  A    between atoms: _619  and  _620
REMARK  241  A    between atoms: _619  and  _622
REMARK  242  A    between atoms: _622  and  _623
REMARK  243  A    between atoms: _623  and  _624
REMARK  244  A    between atoms: _624  and  _625
REMARK  245  A    between atoms: _634  and  _636
REMARK  246  A    between atoms: _636  and  _637
REMARK  247  A    between atoms: _636  and  _639
REMARK  248  A    between atoms: _639  and  _640
REMARK  249  A    between atoms: _640  and  _641
REMARK  250  A    between atoms: _641  and  _642
REMARK  251  A    between atoms: _651  and  _653
REMARK  252  A    between atoms: _653  and  _654
REMARK  253  A    between atoms: _653  and  _656
REMARK  254  A    between atoms: _656  and  _657
REMARK  255  A    between atoms: _657  and  _658
REMARK  256  A    between atoms: _658  and  _659
REMARK  257  A    between atoms: _659  and  _660
REMARK  258  A    between atoms: _664  and  _666
REMARK  259  A    between atoms: _666  and  _667
REMARK  260  A    between atoms: _666  and  _669
REMARK  261  A    between atoms: _669  and  _670
REMARK  262  A    between atoms: _680  and  _682
REMARK  263  A    between atoms: _682  and  _683
REMARK  264  A    between atoms: _682  and  _685
REMARK  265  A    between atoms: _685  and  _686
REMARK  266  A    between atoms: _686  and  _687
REMARK  267  A    between atoms: _690  and  _692
REMARK  268  A    between atoms: _692  and  _693
REMARK  269  A    between atoms: _692  and  _695
REMARK  270  A    between atoms: _695  and  _696
REMARK  271  A    between atoms: _696  and  _697
REMARK  272  A    between atoms: _702  and  _704
REMARK  273  A    between atoms: _704  and  _705
REMARK  274  A    between atoms: _708  and  _710
REMARK  275  A    between atoms: _710  and  _711
REMARK  276  A    between atoms: _713  and  _715
REMARK  277  A    between atoms: _715  and  _716
REMARK  278  A    between atoms: _719  and  _721
REMARK  279  A    between atoms: _721  and  _722
REMARK  280  A    between atoms: _725  and  _727
REMARK  281  A    between atoms: _727  and  _728
REMARK  282  A    between atoms: _727  and  _730
REMARK  283  A    between atoms: _730  and  _731
REMARK  284  A    between atoms: _731  and  _732
REMARK  285  A    between atoms: _735  and  _737
REMARK  286  A    between atoms: _737  and  _738
REMARK  287  A    between atoms: _737  and  _740
REMARK  288  A    between atoms: _740  and  _741
REMARK  289  A    between atoms: _746  and  _747
REMARK  290  A    between atoms: _749  and  _751
REMARK  291  A    between atoms: _751  and  _752
REMARK  292  A    between atoms: _751  and  _754
REMARK  293  A    between atoms: _754  and  _755
REMARK  294  A    between atoms: _760  and  _761
REMARK  295  A    between atoms: _763  and  _765
REMARK  296  A    between atoms: _765  and  _766
REMARK  297  A    between atoms: _765  and  _768
REMARK  298  A    between atoms: _768  and  _769
REMARK  299  A    between atoms: _769  and  _770
REMARK  300  A    between atoms: _770  and  _771
REMARK  301  A    between atoms: _780  and  _782
REMARK  302  A    between atoms: _782  and  _783
REMARK  303  A    between atoms: _786  and  _788
REMARK  304  A    between atoms: _788  and  _789
REMARK  305  A    between atoms: _788  and  _791
REMARK  306  A    between atoms: _791  and  _792
REMARK  307  A    between atoms: _797  and  _798
REMARK  308  A    between atoms: _800  and  _802
REMARK  309  A    between atoms: _802  and  _803
REMARK  310  A    between atoms: _802  and  _805
REMARK  311  A    between atoms: _805  and  _806
REMARK  312  A    between atoms: _809  and  _811
REMARK  313  A    between atoms: _811  and  _812
REMARK  314  A    between atoms: _811  and  _814
REMARK  315  A    between atoms: _814  and  _815
REMARK  316  A    between atoms: _815  and  _816
REMARK  317  A    between atoms: _819  and  _821
REMARK  318  A    between atoms: _821  and  _822
REMARK  319  A    between atoms: _821  and  _824
REMARK  320  A    between atoms: _826  and  _828
REMARK  321  A    between atoms: _828  and  _829
REMARK  322  A    between atoms: _828  and  _831
REMARK  323  A    between atoms: _834  and  _836
REMARK  324  A    between atoms: _836  and  _837
REMARK  325  A    between atoms: _836  and  _839
REMARK  326  A    between atoms: _839  and  _840
REMARK  327  A    between atoms: _840  and  _841
REMARK  328  A    between atoms: _844  and  _846
REMARK  329  A    between atoms: _846  and  _847
REMARK  330  A    between atoms: _846  and  _849
REMARK  331  A    between atoms: _849  and  _850
REMARK  332  A    between atoms: _860  and  _862
REMARK  333  A    between atoms: _862  and  _863
REMARK  334  A    between atoms: _862  and  _865
REMARK  335  A    between atoms: _865  and  _866
REMARK  336  A    between atoms: _869  and  _871
REMARK  337  A    between atoms: _871  and  _872
REMARK  338  A    between atoms: _871  and  _874
REMARK  339  A    between atoms: _874  and  _875
REMARK  340  A    between atoms: _875  and  _876
REMARK  341  A    between atoms: _876  and  _877
REMARK  342  A    between atoms: _886  and  _888
REMARK  343  A    between atoms: _888  and  _889
REMARK  344  A    between atoms: _888  and  _891
REMARK  345  A    between atoms: _891  and  _892
REMARK  346  A    between atoms: _897  and  _898
REMARK                            x       y       z     vdW  Elec       q    Type
REMARK                         _______ _______ _______ _____ _____    ______ ____
ROOT
ATOM      1  CA  GLU A   4       7.624  -8.345 -20.830  0.00  0.00    +0.149 C 
ENDROOT
BRANCH   1   2
ATOM      2  C   GLU A   4       6.514  -9.355 -21.067  0.00  0.00    +0.241 C 
ATOM      3  N   TRP A   5       6.039 -10.001 -20.009  0.00  0.00    -0.297 N 
ATOM      4  H   TRP A   5       6.430  -9.818 -19.063  0.00  0.00    +0.150 HD
ATOM      5  O   GLU A   4       6.085  -9.549 -22.203  0.00  0.00    -0.273 OA
BRANCH   3   6
ATOM      6  CA  TRP A   5       4.968 -10.966 -20.185  0.00  0.00    +0.153 C 
BRANCH   6   7
ATOM      7  C   TRP A   5       3.632 -10.301 -20.480  0.00  0.00    +0.241 C 
ATOM      8  N   LEU A   6       3.448  -9.081 -19.984  0.00  0.00    -0.298 N 
ATOM      9  H   LEU A   6       4.186  -8.639 -19.400  0.00  0.00    +0.150 HD
ATOM     10  O   TRP A   5       2.780 -10.880 -21.159  0.00  0.00    -0.273 OA
BRANCH   8  11
ATOM     11  CA  LEU A   6       2.211  -8.367 -20.261  0.00  0.00    +0.137 C 
BRANCH  11  12
ATOM     12  C   LEU A   6       2.203  -8.050 -21.752  0.00  0.00    +0.227 C 
ATOM     13  O   LEU A   6       1.154  -8.087 -22.405  0.00  0.00    -0.286 OA
ENDBRANCH  11  12
BRANCH  11  14
ATOM     14  CB  LEU A   6       2.124  -7.066 -19.452  0.00  0.00    +0.028 C 
BRANCH  14  15
ATOM     15  CG  LEU A   6       0.945  -6.134 -19.778  0.00  0.00    +0.002 C 
ATOM     16  CD2 LEU A   6       0.906  -4.984 -18.777  0.00  0.00    +0.000 C 
ATOM     17  CD1 LEU A   6      -0.366  -6.915 -19.757  0.00  0.00    +0.000 C 
ENDBRANCH  14  15
ENDBRANCH  11  14
ENDBRANCH   8  11
ENDBRANCH   6   7
BRANCH   6  18
ATOM     18  CB  TRP A   5       4.857 -11.876 -18.969  0.00  0.00    +0.057 C 
BRANCH  18  19
ATOM     19  CG  TRP A   5       5.881 -12.958 -19.003  0.00  0.00    -0.002 A 
ATOM     20  CD1 TRP A   5       7.098 -12.962 -18.386  0.00  0.00    +0.068 A 
ATOM     21  NE1 TRP A   5       7.762 -14.135 -18.654  0.00  0.00    -0.352 N 
ATOM     22  HE1 TRP A   5       8.706 -14.389 -18.299  0.00  0.00    +0.166 HD
ATOM     23  CE2 TRP A   5       6.979 -14.915 -19.464  0.00  0.00    +0.056 A 
ATOM     24  CZ2 TRP A   5       7.218 -16.189 -20.001  0.00  0.00    +0.017 A 
ATOM     25  CH2 TRP A   5       6.236 -16.735 -20.793  0.00  0.00    +0.001 A 
ATOM     26  CZ3 TRP A   5       5.032 -16.046 -21.052  0.00  0.00    +0.000 A 
ATOM     27  CE3 TRP A   5       4.798 -14.784 -20.517  0.00  0.00    +0.001 A 
ATOM     28  CD2 TRP A   5       5.781 -14.203 -19.704  0.00  0.00    +0.013 A 
ENDBRANCH  18  19
ENDBRANCH   6  18
ENDBRANCH   3   6
ENDBRANCH   1   2
BRANCH   1  30
ATOM     29  C   VAL A   3       6.424  -6.657 -19.554  0.00  0.00    +0.241 C 
ATOM     30  N   GLU A   4       7.446  -7.507 -19.643  0.00  0.00    -0.297 N 
ATOM     31  H   GLU A   4       8.126  -7.576 -18.859  0.00  0.00    +0.150 HD
ATOM     32  O   VAL A   3       5.573  -6.570 -20.430  0.00  0.00    -0.273 OA
BRANCH  29  33
ATOM     33  CA  VAL A   3       6.316  -5.793 -18.287  0.00  0.00    +0.149 C 
BRANCH  33  35
ATOM     34  C   CYS A   2       5.729  -7.599 -16.772  0.00  0.00    +0.242 C 
ATOM     35  N   VAL A   3       6.535  -6.590 -17.088  0.00  0.00    -0.297 N 
ATOM     36  H   VAL A   3       7.338  -6.365 -16.466  0.00  0.00    +0.150 HD
ATOM     37  O   CYS A   2       4.761  -7.922 -17.456  0.00  0.00    -0.273 OA
BRANCH  34  38
ATOM     38  CA  CYS A   2       6.065  -8.366 -15.499  0.00  0.00    +0.160 C 
BRANCH  38  40
ATOM     39  C   GLU A   1       7.921  -9.526 -16.547  0.00  0.00    +0.238 C 
ATOM     40  N   CYS A   2       7.460  -8.805 -15.525  0.00  0.00    -0.297 N 
ATOM     41  H   CYS A   2       8.096  -8.553 -14.742  0.00  0.00    +0.150 HD
ATOM     42  O   GLU A   1       7.218  -9.846 -17.507  0.00  0.00    -0.274 OA
BRANCH  39  43
ATOM     43  CA  GLU A   1       9.383  -9.961 -16.495  0.00  0.00    +0.145 C 
BRANCH  43  44
ATOM     44  N   GLU A   1      10.335  -8.896 -16.190  0.00  0.00    -0.238 NA
ATOM     45  H   GLU A   1      11.059  -9.059 -15.461  0.00  0.00    +0.142 HD
ENDBRANCH  43  44
BRANCH  43  46
ATOM     46  CB  GLU A   1       9.518 -11.114 -15.493  0.00  0.00    +0.038 C 
BRANCH  46  47
ATOM     47  CG  GLU A   1      10.874 -11.800 -15.502  0.00  0.00    +0.116 C 
BRANCH  47  48
ATOM     48  CD  GLU A   1      10.905 -13.040 -14.621  0.00  0.00    +0.365 C 
ATOM     49  OE2 GLU A   1      10.711 -12.914 -13.391  0.00  0.00    -0.246 OA
ATOM     50  OE1 GLU A   1      11.122 -14.143 -15.164  0.00  0.00    -0.246 OA
ENDBRANCH  47  48
ENDBRANCH  46  47
ENDBRANCH  43  46
ENDBRANCH  39  43
ENDBRANCH  38  40
BRANCH  38  51
ATOM     51  CB  CYS A   2       5.780  -7.483 -14.275  0.00  0.00    +0.098 C 
ATOM     52  SG  CYS A   2       4.002  -7.244 -13.939  0.00  0.00    -0.080 S 
ENDBRANCH  38  51
ENDBRANCH  34  38
ENDBRANCH  33  35
BRANCH  33  53
ATOM     53  CB  VAL A   3       7.338  -4.610 -18.371  0.00  0.00    +0.027 C 
ATOM     54  CG2 VAL A   3       7.146  -3.666 -17.184  0.00  0.00    +0.002 C 
ATOM     55  CG1 VAL A   3       7.161  -3.840 -19.680  0.00  0.00    +0.002 C 
ENDBRANCH  33  53
ENDBRANCH  29  33
ENDBRANCH   1  30
BRANCH   1  56
ATOM     56  CB  GLU A   4       8.980  -9.060 -20.788  0.00  0.00    +0.041 C 
BRANCH  56  57
ATOM     57  CG  GLU A   4      10.121  -8.196 -21.316  0.00  0.00    +0.116 C 
BRANCH  57  58
ATOM     58  CD  GLU A   4      11.495  -8.819 -21.135  0.00  0.00    +0.365 C 
ATOM     59  OE2 GLU A   4      11.617  -9.802 -20.368  0.00  0.00    -0.246 OA
ATOM     60  OE1 GLU A   4      12.458  -8.311 -21.760  0.00  0.00    -0.246 OA
ENDBRANCH  57  58
ENDBRANCH  56  57
ENDBRANCH   1  56
TORSDOF 24
REMARK  Name = ../refined-set-2016/3ery/3ery_pocket.pdb
REMARK  346 active torsions:
REMARK  status: ('A' for Active; 'I' for Inactive)
REMARK    1  A    between atoms: _1  and  _3
REMARK    2  A    between atoms: _3  and  _4
REMARK    3  A    between atoms: _3  and  _6
REMARK    4  A    between atoms: _6  and  _7
REMARK    5  A    between atoms: _7  and  _8
REMARK    6  A    between atoms: _10  and  _12
REMARK    7  A    between atoms: _12  and  _13
REMARK    8  A    between atoms: _12  and  _15
REMARK    9  A    between atoms: _15  and  _16
REMARK   10  A    between atoms: _16  and  _17
REMARK   11  A    between atoms: _17  and  _18
REMARK   12  A    between atoms: _27  and  _29
REMARK   13  A    between atoms: _29  and  _30
REMARK   14  A    between atoms: _29  and  _32
REMARK   15  A    between atoms: _32  and  _33
REMARK   16  A    between atoms: _38  and  _39
REMARK   17  A    between atoms: _41  and  _43
REMARK   18  A    between atoms: _43  and  _44
REMARK   19  A    between atoms: _43  and  _46
REMARK   20  A    between atoms: _46  and  _47
REMARK   21  A    between atoms: _52  and  _53
REMARK   22  A    between atoms: _55  and  _57
REMARK   23  A    between atoms: _57  and  _58
REMARK   24  A    between atoms: _57  and  _60
REMARK   25  A    between atoms: _60  and  _61
REMARK   26  A    between atoms: _61  and  _62
REMARK   27  A    between atoms: _65  and  _67
REMARK   28  A    between atoms: _67  and  _68
REMARK   29  A    between atoms: _67  and  _70
REMARK   30  A    between atoms: _70  and  _71
REMARK   31  A    between atoms: _76  and  _77
REMARK   32  A    between atoms: _79  and  _81
REMARK   33  A    between atoms: _81  and  _82
REMARK   34  A    between atoms: _81  and  _84
REMARK   35  A    between atoms: _84  and  _85
REMARK   36  A    between atoms: _87  and  _89
REMARK   37  A    between atoms: _89  and  _90
REMARK   38  A    between atoms: _89  and  _92
REMARK   39  A    between atoms: _95  and  _97
REMARK   40  A    between atoms: _97  and  _98
REMARK   41  A    between atoms: _100  and  _102
REMARK   42  A    between atoms: _102  and  _103
REMARK   43  A    between atoms: _102  and  _105
REMARK   44  A    between atoms: _105  and  _106
REMARK   45  A    between atoms: _112  and  _114
REMARK   46  A    between atoms: _114  and  _115
REMARK   47  A    between atoms: _114  and  _117
REMARK   48  A    between atoms: _120  and  _122
REMARK   49  A    between atoms: _122  and  _123
REMARK   50  A    between atoms: _122  and  _125
REMARK   51  A    between atoms: _125  and  _126
REMARK   52  A    between atoms: _132  and  _134
REMARK   53  A    between atoms: _134  and  _135
REMARK   54  A    between atoms: _134  and  _137
REMARK   55  A    between atoms: _137  and  _138
REMARK   56  A    between atoms: _143  and  _144
REMARK   57  A    between atoms: _146  and  _148
REMARK   58  A    between atoms: _148  and  _149
REMARK   59  A    between atoms: _148  and  _151
REMARK   60  A    between atoms: _151  and  _152
REMARK   61  A    between atoms: _152  and  _153
REMARK   62  A    between atoms: _156  and  _158
REMARK   63  A    between atoms: _158  and  _159
REMARK   64  A    between atoms: _158  and  _161
REMARK   65  A    between atoms: _161  and  _162
REMARK   66  A    between atoms: _162  and  _163
REMARK   67  A    between atoms: _166  and  _168
REMARK   68  A    between atoms: _168  and  _169
REMARK   69  A    between atoms: _168  and  _171
REMARK   70  A    between atoms: _171  and  _172
REMARK   71  A    between atoms: _177  and  _178
REMARK   72  A    between atoms: _180  and  _182
REMARK   73  A    between atoms: _182  and  _183
REMARK   74  A    between atoms: _182  and  _185
REMARK   75  A    between atoms: _185  and  _186
REMARK   76  A    between atoms: _196  and  _198
REMARK   77  A    between atoms: _198  and  _199
REMARK   78  A    between atoms: _198  and  _201
REMARK   79  A    between atoms: _201  and  _202
REMARK   80  A    between atoms: _202  and  _203
REMARK   81  A    between atoms: _206  and  _208
REMARK   82  A    between atoms: _208  and  _209
REMARK   83  A    between atoms: _208  and  _211
REMARK   84  A    between atoms: _211  and  _212
REMARK   85  A    between atoms: _212  and  _213
REMARK   86  A    between atoms: _213  and  _214
REMARK   87  A    between atoms: _223  and  _225
REMARK   88  A    between atoms: _225  and  _226
REMARK   89  A    between atoms: _225  and  _228
REMARK   90  A    between atoms: _228  and  _229
REMARK   91  A    between atoms: _232  and  _234
REMARK   92  A    between atoms: _234  and  _235
REMARK   93  A    between atoms: _234  and  _237
REMARK   94  A    between atoms: _237  and  _238
REMARK   95  A    between atoms: _241  and  _243
REMARK   96  A    between atoms: _243  and  _244
REMARK   97  A    between atoms: _243  and  _246
REMARK   98  A    between atoms: _246  and  _247
REMARK   99  A    between atoms: _247  and  _248
REMARK  100  A    between atoms: _253  and  _255
REMARK  101  A    between atoms: _255  and  _256
REMARK  102  A    between atoms: _255  and  _258
REMARK  103  A    between atoms: _261  and  _263
REMARK  104  A    between atoms: _263  and  _264
REMARK  105  A    between atoms: _267  and  _269
REMARK  106  A    between atoms: _269  and  _270
REMARK  107  A    between atoms: _269  and  _272
REMARK  108  A    between atoms: _272  and  _273
REMARK  109  A    between atoms: _273  and  _274
REMARK  110  A    between atoms: _274  and  _275
REMARK  111  A    between atoms: _275  and  _276
REMARK  112  A    between atoms: _280  and  _282
REMARK  113  A    between atoms: _282  and  _283
REMARK  114  A    between atoms: _285  and  _287
REMARK  115  A    between atoms: _287  and  _288
REMARK  116  A    between atoms: _287  and  _290
REMARK  117  A    between atoms: _290  and  _291
REMARK  118  A    between atoms: _291  and  _292
REMARK  119  A    between atoms: _297  and  _299
REMARK  120  A    between atoms: _299  and  _300
REMARK  121  A    between atoms: _299  and  _302
REMARK  122  A    between atoms: _302  and  _303
REMARK  123  A    between atoms: _303  and  _304
REMARK  124  A    between atoms: _309  and  _311
REMARK  125  A    between atoms: _311  and  _312
REMARK  126  A    between atoms: _311  and  _314
REMARK  127  A    between atoms: _314  and  _315
REMARK  128  A    between atoms: _325  and  _327
REMARK  129  A    between atoms: _327  and  _328
REMARK  130  A    between atoms: _327  and  _330
REMARK  131  A    between atoms: _330  and  _331
REMARK  132  A    between atoms: _337  and  _339
REMARK  133  A    between atoms: _339  and  _340
REMARK  134  A    between atoms: _339  and  _342
REMARK  135  A    between atoms: _345  and  _347
REMARK  136  A    between atoms: _347  and  _348
REMARK  137  A    between atoms: _347  and  _350
REMARK  138  A    between atoms: _350  and  _351
REMARK  139  A    between atoms: _356  and  _358
REMARK  140  A    between atoms: _358  and  _359
REMARK  141  A    between atoms: _358  and  _361
REMARK  142  A    between atoms: _361  and  _362
REMARK  143  A    between atoms: _365  and  _367
REMARK  144  A    between atoms: _367  and  _368
REMARK  145  A    between atoms: _367  and  _370
REMARK  146  A    between atoms: _370  and  _371
REMARK  147  A    between atoms: _371  and  _372
REMARK  148  A    between atoms: _372  and  _373
REMARK  149  A    between atoms: _382  and  _384
REMARK  150  A    between atoms: _384  and  _385
REMARK  151  A    between atoms: _384  and  _387
REMARK  152  A    between atoms: _387  and  _388
REMARK  153  A    between atoms: _391  and  _393
REMARK  154  A    between atoms: _393  and  _394
REMARK  155  A    between atoms: _393  and  _396
REMARK  156  A    between atoms: _396  and  _397
REMARK  157  A    between atoms: _400  and  _402
REMARK  158  A    between atoms: _402  and  _403
REMARK  159  A    between atoms: _402  and  _405
REMARK  160  A    between atoms: _405  and  _406
REMARK  161  A    between atoms: _409  and  _411
REMARK  162  A    between atoms: _411  and  _412
REMARK  163  A    between atoms: _411  and  _414
REMARK  164  A    between atoms: _414  and  _415
REMARK  165  A    between atoms: _420  and  _421
REMARK  166  A    between atoms: _423  and  _425
REMARK  167  A    between atoms: _425  and  _426
REMARK  168  A    between atoms: _425  and  _428
REMARK  169  A    between atoms: _428  and  _429
REMARK  170  A    between atoms: _432  and  _434
REMARK  171  A    between atoms: _434  and  _435
REMARK  172  A    between atoms: _434  and  _437
REMARK  173  A    between atoms: _437  and  _438
REMARK  174  A    between atoms: _438  and  _439
REMARK  175  A    between atoms: _444  and  _446
REMARK  176  A    between atoms: _446  and  _447
REMARK  177  A    between atoms: _446  and  _449
REMARK  178  A    between atoms: _449  and  _450
REMARK  179  A    between atoms: _450  and  _451
REMARK  180  A    between atoms: _451  and  _452
REMARK  181  A    between atoms: _461  and  _463
REMARK  182  A    between atoms: _463  and  _464
REMARK  183  A    between atoms: _463  and  _466
REMARK  184  A    between atoms: _466  and  _467
REMARK  185  A    between atoms: _472  and  _473
REMARK  186  A    between atoms: _475  and  _477
REMARK  187  A    between atoms: _477  and  _478
REMARK  188  A    between atoms: _480  and  _482
REMARK  189  A    between atoms: _482  and  _483
REMARK  190  A    between atoms: _482  and  _485
REMARK  191  A    between atoms: _485  and  _486
REMARK  192  A    between atoms: _491  and  _492
REMARK  193  A    between atoms: _494  and  _496
REMARK  194  A    between atoms: _496  and  _497
REMARK  195  A    between atoms: _496  and  _499
REMARK  196  A    between atoms: _499  and  _500
REMARK  197  A    between atoms: _500  and  _501
REMARK  198  A    between atoms: _504  and  _506
REMARK  199  A    between atoms: _506  and  _507
REMARK  200  A    between atoms: _506  and  _509
REMARK  201  A    between atoms: _509  and  _510
REMARK  202  A    between atoms: _516  and  _518
REMARK  203  A    between atoms: _518  and  _519
REMARK  204  A    between atoms: _522  and  _524
REMARK  205  A    between atoms: _524  and  _525
REMARK  206  A    between atoms: _524  and  _527
REMARK  207  A    between atoms: _527  and  _528
REMARK  208  A    between atoms: _533  and  _534
REMARK  209  A    between atoms: _536  and  _538
REMARK  210  A    between atoms: _538  and  _539
REMARK  211  A    between atoms: _538  and  _541
REMARK  212  A    between atoms: _541  and  _542
REMARK  213  A    between atoms: _547  and  _548
REMARK  214  A    between atoms: _550  and  _552
REMARK  215  A    between atoms: _552  and  _553
REMARK  216  A    between atoms: _552  and  _555
REMARK  217  A    between atoms: _555  and  _556
REMARK  218  A    between atoms: _559  and  _561
REMARK  219  A    between atoms: _561  and  _562
REMARK  220  A    between atoms: _561  and  _564
REMARK  221  A    between atoms: _564  and  _565
REMARK  222  A    between atoms: _575  and  _577
REMARK  223  A    between atoms: _577  and  _578
REMARK  224  A    between atoms: _581  and  _583
REMARK  225  A    between atoms: _583  and  _584
REMARK  226  A    between atoms: _587  and  _589
REMARK  227  A    between atoms: _589  and  _590
REMARK  228  A    between atoms: _589  and  _592
REMARK  229  A    between atoms: _592  and  _593
REMARK  230  A    between atoms: _593  and  _594
REMARK  231  A    between atoms: _599  and  _601
REMARK  232  A    between atoms: _601  and  _602
REMARK  233  A    between atoms: _601  and  _604
REMARK  234  A    between atoms: _604  and  _605
REMARK  235  A    between atoms: _608  and  _610
REMARK  236  A    between atoms: _610  and  _611
REMARK  237  A    between atoms: _610  and  _613
REMARK  238  A    between atoms: _613  and  _614
REMARK  239  A    between atoms: _617  and  _619
REMARK  240  A    between atoms: _619  and  _620
REMARK  241  A    between atoms: _619  and  _622
REMARK  242  A    between atoms: _622  and  _623
REMARK  243  A    between atoms: _623  and  _624
REMARK  244  A    between atoms: _624  and  _625
REMARK  245  A    between atoms: _634  and  _636
REMARK  246  A    between atoms: _636  and  _637
REMARK  247  A    between atoms: _636  and  _639
REMARK  248  A    between atoms: _639  and  _640
REMARK  249  A    between atoms: _640  and  _641
REMARK  250  A    between atoms: _641  and  _642
REMARK  251  A    between atoms: _651  and  _653
REMARK  252  A    between atoms: _653  and  _654
REMARK  253  A    between atoms: _653  and  _656
REMARK  254  A    between atoms: _656  and  _657
REMARK  255  A    between atoms: _657  and  _658
REMARK  256  A    between atoms: _658  and  _659
REMARK  257  A    between atoms: _659  and  _660
REMARK  258  A    between atoms: _664  and  _666
REMARK  259  A    between atoms: _666  and  _667
REMARK  260  A    between atoms: _666  and  _669
REMARK  261  A    between atoms: _669  and  _670
REMARK  262  A    between atoms: _680  and  _682
REMARK  263  A    between atoms: _682  and  _683
REMARK  264  A    between atoms: _682  and  _685
REMARK  265  A    between atoms: _685  and  _686
REMARK  266  A    between atoms: _686  and  _687
REMARK  267  A    between atoms: _690  and  _692
REMARK  268  A    between atoms: _692  and  _693
REMARK  269  A    between atoms: _692  and  _695
REMARK  270  A    between atoms: _695  and  _696
REMARK  271  A    between atoms: _696  and  _697
REMARK  272  A    between atoms: _702  and  _704
REMARK  273  A    between atoms: _704  and  _705
REMARK  274  A    between atoms: _708  and  _710
REMARK  275  A    between atoms: _710  and  _711
REMARK  276  A    between atoms: _713  and  _715
REMARK  277  A    between atoms: _715  and  _716
REMARK  278  A    between atoms: _719  and  _721
REMARK  279  A    between atoms: _721  and  _722
REMARK  280  A    between atoms: _725  and  _727
REMARK  281  A    between atoms: _727  and  _728
REMARK  282  A    between atoms: _727  and  _730
REMARK  283  A    between atoms: _730  and  _731
REMARK  284  A    between atoms: _731  and  _732
REMARK  285  A    between atoms: _735  and  _737
REMARK  286  A    between atoms: _737  and  _738
REMARK  287  A    between atoms: _737  and  _740
REMARK  288  A    between atoms: _740  and  _741
REMARK  289  A    between atoms: _746  and  _747
REMARK  290  A    between atoms: _749  and  _751
REMARK  291  A    between atoms: _751  and  _752
REMARK  292  A    between atoms: _751  and  _754
REMARK  293  A    between atoms: _754  and  _755
REMARK  294  A    between atoms: _760  and  _761
REMARK  295  A    between atoms: _763  and  _765
REMARK  296  A    between atoms: _765  and  _766
REMARK  297  A    between atoms: _765  and  _768
REMARK  298  A    between atoms: _768  and  _769
REMARK  299  A    between atoms: _769  and  _770
REMARK  300  A    between atoms: _770  and  _771
REMARK  301  A    between atoms: _780  and  _782
REMARK  302  A    between atoms: _782  and  _783
REMARK  303  A    between atoms: _786  and  _788
REMARK  304  A    between atoms: _788  and  _789
REMARK  305  A    between atoms: _788  and  _791
REMARK  306  A    between atoms: _791  and  _792
REMARK  307  A    between atoms: _797  and  _798
REMARK  308  A    between atoms: _800  and  _802
REMARK  309  A    between atoms: _802  and  _803
REMARK  310  A    between atoms: _802  and  _805
REMARK  311  A    between atoms: _805  and  _806
REMARK  312  A    between atoms: _809  and  _811
REMARK  313  A    between atoms: _811  and  _812
REMARK  314  A    between atoms: _811  and  _814
REMARK  315  A    between atoms: _814  and  _815
REMARK  316  A    between atoms: _815  and  _816
REMARK  317  A    between atoms: _819  and  _821
REMARK  318  A    between atoms: _821  and  _822
REMARK  319  A    between atoms: _821  and  _824
REMARK  320  A    between atoms: _826  and  _828
REMARK  321  A    between atoms: _828  and  _829
REMARK  322  A    between atoms: _828  and  _831
REMARK  323  A    between atoms: _834  and  _836
REMARK  324  A    between atoms: _836  and  _837
REMARK  325  A    between atoms: _836  and  _839
REMARK  326  A    between atoms: _839  and  _840
REMARK  327  A    between atoms: _840  and  _841
REMARK  328  A    between atoms: _844  and  _846
REMARK  329  A    between atoms: _846  and  _847
REMARK  330  A    between atoms: _846  and  _849
REMARK  331  A    between atoms: _849  and  _850
REMARK  332  A    between atoms: _860  and  _862
REMARK  333  A    between atoms: _862  and  _863
REMARK  334  A    between atoms: _862  and  _865
REMARK  335  A    between atoms: _865  and  _866
REMARK  336  A    between atoms: _869  and  _871
REMARK  337  A    between atoms: _871  and  _872
REMARK  338  A    between atoms: _871  and  _874
REMARK  339  A    between atoms: _874  and  _875
REMARK  340  A    between atoms: _875  and  _876
REMARK  341  A    between atoms: _876  and  _877
REMARK  342  A    between atoms: _886  and  _888
REMARK  343  A    between atoms: _888  and  _889
REMARK  344  A    between atoms: _888  and  _891
REMARK  345  A    between atoms: _891  and  _892
REMARK  346  A    between atoms: _897  and  _898
REMARK                            x       y       z     vdW  Elec       q    Type
REMARK                         _______ _______ _______ _____ _____    ______ ____
ROOT
ATOM      1  C   ARG A   1       1.920 -11.413 -24.827  0.00  0.00    +0.238 C 
ATOM      2  N   TYR A   2       1.299 -11.411 -23.649  0.00  0.00    -0.298 N 
ATOM      3  H   TYR A   2       1.839 -11.171 -22.793  0.00  0.00    +0.150 HD
ATOM      4  O   ARG A   1       1.347 -11.686 -25.887  0.00  0.00    -0.274 OA
ENDROOT
BRANCH   1   5
ATOM      5  CA  ARG A   1       3.408 -11.053 -24.816  0.00  0.00    +0.145 C 
BRANCH   5   6
ATOM      6  N   ARG A   1       3.654  -9.806 -24.119  0.00  0.00    -0.238 NA
ATOM      7  H   ARG A   1       4.227  -9.818 -23.251  0.00  0.00    +0.142 HD
ENDBRANCH   5   6
BRANCH   5   8
ATOM      8  CB  ARG A   1       4.205 -12.169 -24.156  0.00  0.00    +0.030 C 
BRANCH   8   9
ATOM      9  CG  ARG A   1       4.446 -13.370 -25.036  0.00  0.00    +0.045 C 
BRANCH   9  10
ATOM     10  CD  ARG A   1       5.938 -13.606 -25.155  0.00  0.00    +0.174 C 
BRANCH  10  11
ATOM     11  NE  ARG A   1       6.581 -13.617 -23.841  0.00  0.00    -0.265 N 
ATOM     12  HE  ARG A   1       5.974 -13.527 -23.001  0.00  0.00    +0.259 HD
ATOM     13  CZ  ARG A   1       7.891 -13.735 -23.653  0.00  0.00    +0.342 C 
ATOM     14  NH2 ARG A   1       8.392 -13.734 -22.425  0.00  0.00    -0.292 N 
ATOM     15 HH21 ARG A   1       7.759 -13.641 -21.605  0.00  0.00    +0.255 HD
ATOM     16 HH22 ARG A   1       9.418 -13.827 -22.282  0.00  0.00    +0.255 HD
ATOM     17  NH1 ARG A   1       8.700 -13.851 -24.696  0.00  0.00    -0.292 N 
ATOM     18 HH11 ARG A   1       9.726 -13.943 -24.551  0.00  0.00    +0.255 HD
ATOM     19 HH12 ARG A   1       8.309 -13.850 -25.660  0.00  0.00    +0.255 HD
ENDBRANCH  10  11
ENDBRANCH   9  10
ENDBRANCH   8   9
ENDBRANCH   5   8
ENDBRANCH   1   5
BRANCH   2  20
ATOM     20  CA  TYR A   2      -0.120 -11.737 -23.527  0.00  0.00    +0.141 C 
BRANCH  20  21
ATOM     21  C   TYR A   2      -0.990 -10.860 -24.417  0.00  0.00    +0.227 C 
ATOM     22  O   TYR A   2      -1.915 -11.348 -25.068  0.00  0.00    -0.286 OA
ENDBRANCH  20  21
BRANCH  20  23
ATOM     23  CB  TYR A   2      -0.598 -11.594 -22.072  0.00  0.00    +0.054 C 
BRANCH  23  24
ATOM     24  CG  TYR A   2       0.043 -12.569 -21.104  0.00  0.00    -0.020 A 
ATOM     25  CD2 TYR A   2       0.424 -12.162 -19.822  0.00  0.00    -0.001 A 
ATOM     26  CE2 TYR A   2       0.995 -13.059 -18.921  0.00  0.00    +0.036 A 
ATOM     27  CZ  TYR A   2       1.188 -14.381 -19.306  0.00  0.00    +0.134 A 
ATOM     28  CE1 TYR A   2       0.818 -14.805 -20.569  0.00  0.00    +0.036 A 
ATOM     29  CD1 TYR A   2       0.248 -13.902 -21.461  0.00  0.00    -0.001 A 
BRANCH  27  30
ATOM     30  OH  TYR A   2       1.745 -15.285 -18.438  0.00  0.00    -0.506 OA
ATOM     31  HH  TYR A   2       1.805 -16.170 -18.878  0.00  0.00    +0.292 HD
ENDBRANCH  27  30
ENDBRANCH  23  24
ENDBRANCH  20  23
ENDBRANCH   2  20
TORSDOF 11
REMARK  Name = ../refined-set-2016/3ery/3ery_pocket.pdb
REMARK  346 active torsions:
REMARK  status: ('A' for Active; 'I' for Inactive)
REMARK    1  A    between atoms: _1  and  _3
REMARK    2  A    between atoms: _3  and  _4
REMARK    3  A    between atoms: _3  and  _6
REMARK    4  A    between atoms: _6  and  _7
REMARK    5  A    between atoms: _7  and  _8
REMARK    6  A    between atoms: _10  and  _12
REMARK    7  A    between atoms: _12  and  _13
REMARK    8  A    between atoms: _12  and  _15
REMARK    9  A    between atoms: _15  and  _16
REMARK   10  A    between atoms: _16  and  _17
REMARK   11  A    between atoms: _17  and  _18
REMARK   12  A    between atoms: _27  and  _29
REMARK   13  A    between atoms: _29  and  _30
REMARK   14  A    between atoms: _29  and  _32
REMARK   15  A    between atoms: _32  and  _33
REMARK   16  A    between atoms: _38  and  _39
REMARK   17  A    between atoms: _41  and  _43
REMARK   18  A    between atoms: _43  and  _44
REMARK   19  A    between atoms: _43  and  _46
REMARK   20  A    between atoms: _46  and  _47
REMARK   21  A    between atoms: _52  and  _53
REMARK   22  A    between atoms: _55  and  _57
REMARK   23  A    between atoms: _57  and  _58
REMARK   24  A    between atoms: _57  and  _60
REMARK   25  A    between atoms: _60  and  _61
REMARK   26  A    between atoms: _61  and  _62
REMARK   27  A    between atoms: _65  and  _67
REMARK   28  A    between atoms: _67  and  _68
REMARK   29  A    between atoms: _67  and  _70
REMARK   30  A    between atoms: _70  and  _71
REMARK   31  A    between atoms: _76  and  _77
REMARK   32  A    between atoms: _79  and  _81
REMARK   33  A    between atoms: _81  and  _82
REMARK   34  A    between atoms: _81  and  _84
REMARK   35  A    between atoms: _84  and  _85
REMARK   36  A    between atoms: _87  and  _89
REMARK   37  A    between atoms: _89  and  _90
REMARK   38  A    between atoms: _89  and  _92
REMARK   39  A    between atoms: _95  and  _97
REMARK   40  A    between atoms: _97  and  _98
REMARK   41  A    between atoms: _100  and  _102
REMARK   42  A    between atoms: _102  and  _103
REMARK   43  A    between atoms: _102  and  _105
REMARK   44  A    between atoms: _105  and  _106
REMARK   45  A    between atoms: _112  and  _114
REMARK   46  A    between atoms: _114  and  _115
REMARK   47  A    between atoms: _114  and  _117
REMARK   48  A    between atoms: _120  and  _122
REMARK   49  A    between atoms: _122  and  _123
REMARK   50  A    between atoms: _122  and  _125
REMARK   51  A    between atoms: _125  and  _126
REMARK   52  A    between atoms: _132  and  _134
REMARK   53  A    between atoms: _134  and  _135
REMARK   54  A    between atoms: _134  and  _137
REMARK   55  A    between atoms: _137  and  _138
REMARK   56  A    between atoms: _143  and  _144
REMARK   57  A    between atoms: _146  and  _148
REMARK   58  A    between atoms: _148  and  _149
REMARK   59  A    between atoms: _148  and  _151
REMARK   60  A    between atoms: _151  and  _152
REMARK   61  A    between atoms: _152  and  _153
REMARK   62  A    between atoms: _156  and  _158
REMARK   63  A    between atoms: _158  and  _159
REMARK   64  A    between atoms: _158  and  _161
REMARK   65  A    between atoms: _161  and  _162
REMARK   66  A    between atoms: _162  and  _163
REMARK   67  A    between atoms: _166  and  _168
REMARK   68  A    between atoms: _168  and  _169
REMARK   69  A    between atoms: _168  and  _171
REMARK   70  A    between atoms: _171  and  _172
REMARK   71  A    between atoms: _177  and  _178
REMARK   72  A    between atoms: _180  and  _182
REMARK   73  A    between atoms: _182  and  _183
REMARK   74  A    between atoms: _182  and  _185
REMARK   75  A    between atoms: _185  and  _186
REMARK   76  A    between atoms: _196  and  _198
REMARK   77  A    between atoms: _198  and  _199
REMARK   78  A    between atoms: _198  and  _201
REMARK   79  A    between atoms: _201  and  _202
REMARK   80  A    between atoms: _202  and  _203
REMARK   81  A    between atoms: _206  and  _208
REMARK   82  A    between atoms: _208  and  _209
REMARK   83  A    between atoms: _208  and  _211
REMARK   84  A    between atoms: _211  and  _212
REMARK   85  A    between atoms: _212  and  _213
REMARK   86  A    between atoms: _213  and  _214
REMARK   87  A    between atoms: _223  and  _225
REMARK   88  A    between atoms: _225  and  _226
REMARK   89  A    between atoms: _225  and  _228
REMARK   90  A    between atoms: _228  and  _229
REMARK   91  A    between atoms: _232  and  _234
REMARK   92  A    between atoms: _234  and  _235
REMARK   93  A    between atoms: _234  and  _237
REMARK   94  A    between atoms: _237  and  _238
REMARK   95  A    between atoms: _241  and  _243
REMARK   96  A    between atoms: _243  and  _244
REMARK   97  A    between atoms: _243  and  _246
REMARK   98  A    between atoms: _246  and  _247
REMARK   99  A    between atoms: _247  and  _248
REMARK  100  A    between atoms: _253  and  _255
REMARK  101  A    between atoms: _255  and  _256
REMARK  102  A    between atoms: _255  and  _258
REMARK  103  A    between atoms: _261  and  _263
REMARK  104  A    between atoms: _263  and  _264
REMARK  105  A    between atoms: _267  and  _269
REMARK  106  A    between atoms: _269  and  _270
REMARK  107  A    between atoms: _269  and  _272
REMARK  108  A    between atoms: _272  and  _273
REMARK  109  A    between atoms: _273  and  _274
REMARK  110  A    between atoms: _274  and  _275
REMARK  111  A    between atoms: _275  and  _276
REMARK  112  A    between atoms: _280  and  _282
REMARK  113  A    between atoms: _282  and  _283
REMARK  114  A    between atoms: _285  and  _287
REMARK  115  A    between atoms: _287  and  _288
REMARK  116  A    between atoms: _287  and  _290
REMARK  117  A    between atoms: _290  and  _291
REMARK  118  A    between atoms: _291  and  _292
REMARK  119  A    between atoms: _297  and  _299
REMARK  120  A    between atoms: _299  and  _300
REMARK  121  A    between atoms: _299  and  _302
REMARK  122  A    between atoms: _302  and  _303
REMARK  123  A    between atoms: _303  and  _304
REMARK  124  A    between atoms: _309  and  _311
REMARK  125  A    between atoms: _311  and  _312
REMARK  126  A    between atoms: _311  and  _314
REMARK  127  A    between atoms: _314  and  _315
REMARK  128  A    between atoms: _325  and  _327
REMARK  129  A    between atoms: _327  and  _328
REMARK  130  A    between atoms: _327  and  _330
REMARK  131  A    between atoms: _330  and  _331
REMARK  132  A    between atoms: _337  and  _339
REMARK  133  A    between atoms: _339  and  _340
REMARK  134  A    between atoms: _339  and  _342
REMARK  135  A    between atoms: _345  and  _347
REMARK  136  A    between atoms: _347  and  _348
REMARK  137  A    between atoms: _347  and  _350
REMARK  138  A    between atoms: _350  and  _351
REMARK  139  A    between atoms: _356  and  _358
REMARK  140  A    between atoms: _358  and  _359
REMARK  141  A    between atoms: _358  and  _361
REMARK  142  A    between atoms: _361  and  _362
REMARK  143  A    between atoms: _365  and  _367
REMARK  144  A    between atoms: _367  and  _368
REMARK  145  A    between atoms: _367  and  _370
REMARK  146  A    between atoms: _370  and  _371
REMARK  147  A    between atoms: _371  and  _372
REMARK  148  A    between atoms: _372  and  _373
REMARK  149  A    between atoms: _382  and  _384
REMARK  150  A    between atoms: _384  and  _385
REMARK  151  A    between atoms: _384  and  _387
REMARK  152  A    between atoms: _387  and  _388
REMARK  153  A    between atoms: _391  and  _393
REMARK  154  A    between atoms: _393  and  _394
REMARK  155  A    between atoms: _393  and  _396
REMARK  156  A    between atoms: _396  and  _397
REMARK  157  A    between atoms: _400  and  _402
REMARK  158  A    between atoms: _402  and  _403
REMARK  159  A    between atoms: _402  and  _405
REMARK  160  A    between atoms: _405  and  _406
REMARK  161  A    between atoms: _409  and  _411
REMARK  162  A    between atoms: _411  and  _412
REMARK  163  A    between atoms: _411  and  _414
REMARK  164  A    between atoms: _414  and  _415
REMARK  165  A    between atoms: _420  and  _421
REMARK  166  A    between atoms: _423  and  _425
REMARK  167  A    between atoms: _425  and  _426
REMARK  168  A    between atoms: _425  and  _428
REMARK  169  A    between atoms: _428  and  _429
REMARK  170  A    between atoms: _432  and  _434
REMARK  171  A    between atoms: _434  and  _435
REMARK  172  A    between atoms: _434  and  _437
REMARK  173  A    between atoms: _437  and  _438
REMARK  174  A    between atoms: _438  and  _439
REMARK  175  A    between atoms: _444  and  _446
REMARK  176  A    between atoms: _446  and  _447
REMARK  177  A    between atoms: _446  and  _449
REMARK  178  A    between atoms: _449  and  _450
REMARK  179  A    between atoms: _450  and  _451
REMARK  180  A    between atoms: _451  and  _452
REMARK  181  A    between atoms: _461  and  _463
REMARK  182  A    between atoms: _463  and  _464
REMARK  183  A    between atoms: _463  and  _466
REMARK  184  A    between atoms: _466  and  _467
REMARK  185  A    between atoms: _472  and  _473
REMARK  186  A    between atoms: _475  and  _477
REMARK  187  A    between atoms: _477  and  _478
REMARK  188  A    between atoms: _480  and  _482
REMARK  189  A    between atoms: _482  and  _483
REMARK  190  A    between atoms: _482  and  _485
REMARK  191  A    between atoms: _485  and  _486
REMARK  192  A    between atoms: _491  and  _492
REMARK  193  A    between atoms: _494  and  _496
REMARK  194  A    between atoms: _496  and  _497
REMARK  195  A    between atoms: _496  and  _499
REMARK  196  A    between atoms: _499  and  _500
REMARK  197  A    between atoms: _500  and  _501
REMARK  198  A    between atoms: _504  and  _506
REMARK  199  A    between atoms: _506  and  _507
REMARK  200  A    between atoms: _506  and  _509
REMARK  201  A    between atoms: _509  and  _510
REMARK  202  A    between atoms: _516  and  _518
REMARK  203  A    between atoms: _518  and  _519
REMARK  204  A    between atoms: _522  and  _524
REMARK  205  A    between atoms: _524  and  _525
REMARK  206  A    between atoms: _524  and  _527
REMARK  207  A    between atoms: _527  and  _528
REMARK  208  A    between atoms: _533  and  _534
REMARK  209  A    between atoms: _536  and  _538
REMARK  210  A    between atoms: _538  and  _539
REMARK  211  A    between atoms: _538  and  _541
REMARK  212  A    between atoms: _541  and  _542
REMARK  213  A    between atoms: _547  and  _548
REMARK  214  A    between atoms: _550  and  _552
REMARK  215  A    between atoms: _552  and  _553
REMARK  216  A    between atoms: _552  and  _555
REMARK  217  A    between atoms: _555  and  _556
REMARK  218  A    between atoms: _559  and  _561
REMARK  219  A    between atoms: _561  and  _562
REMARK  220  A    between atoms: _561  and  _564
REMARK  221  A    between atoms: _564  and  _565
REMARK  222  A    between atoms: _575  and  _577
REMARK  223  A    between atoms: _577  and  _578
REMARK  224  A    between atoms: _581  and  _583
REMARK  225  A    between atoms: _583  and  _584
REMARK  226  A    between atoms: _587  and  _589
REMARK  227  A    between atoms: _589  and  _590
REMARK  228  A    between atoms: _589  and  _592
REMARK  229  A    between atoms: _592  and  _593
REMARK  230  A    between atoms: _593  and  _594
REMARK  231  A    between atoms: _599  and  _601
REMARK  232  A    between atoms: _601  and  _602
REMARK  233  A    between atoms: _601  and  _604
REMARK  234  A    between atoms: _604  and  _605
REMARK  235  A    between atoms: _608  and  _610
REMARK  236  A    between atoms: _610  and  _611
REMARK  237  A    between atoms: _610  and  _613
REMARK  238  A    between atoms: _613  and  _614
REMARK  239  A    between atoms: _617  and  _619
REMARK  240  A    between atoms: _619  and  _620
REMARK  241  A    between atoms: _619  and  _622
REMARK  242  A    between atoms: _622  and  _623
REMARK  243  A    between atoms: _623  and  _624
REMARK  244  A    between atoms: _624  and  _625
REMARK  245  A    between atoms: _634  and  _636
REMARK  246  A    between atoms: _636  and  _637
REMARK  247  A    between atoms: _636  and  _639
REMARK  248  A    between atoms: _639  and  _640
REMARK  249  A    between atoms: _640  and  _641
REMARK  250  A    between atoms: _641  and  _642
REMARK  251  A    between atoms: _651  and  _653
REMARK  252  A    between atoms: _653  and  _654
REMARK  253  A    between atoms: _653  and  _656
REMARK  254  A    between atoms: _656  and  _657
REMARK  255  A    between atoms: _657  and  _658
REMARK  256  A    between atoms: _658  and  _659
REMARK  257  A    between atoms: _659  and  _660
REMARK  258  A    between atoms: _664  and  _666
REMARK  259  A    between atoms: _666  and  _667
REMARK  260  A    between atoms: _666  and  _669
REMARK  261  A    between atoms: _669  and  _670
REMARK  262  A    between atoms: _680  and  _682
REMARK  263  A    between atoms: _682  and  _683
REMARK  264  A    between atoms: _682  and  _685
REMARK  265  A    between atoms: _685  and  _686
REMARK  266  A    between atoms: _686  and  _687
REMARK  267  A    between atoms: _690  and  _692
REMARK  268  A    between atoms: _692  and  _693
REMARK  269  A    between atoms: _692  and  _695
REMARK  270  A    between atoms: _695  and  _696
REMARK  271  A    between atoms: _696  and  _697
REMARK  272  A    between atoms: _702  and  _704
REMARK  273  A    between atoms: _704  and  _705
REMARK  274  A    between atoms: _708  and  _710
REMARK  275  A    between atoms: _710  and  _711
REMARK  276  A    between atoms: _713  and  _715
REMARK  277  A    between atoms: _715  and  _716
REMARK  278  A    between atoms: _719  and  _721
REMARK  279  A    between atoms: _721  and  _722
REMARK  280  A    between atoms: _725  and  _727
REMARK  281  A    between atoms: _727  and  _728
REMARK  282  A    between atoms: _727  and  _730
REMARK  283  A    between atoms: _730  and  _731
REMARK  284  A    between atoms: _731  and  _732
REMARK  285  A    between atoms: _735  and  _737
REMARK  286  A    between atoms: _737  and  _738
REMARK  287  A    between atoms: _737  and  _740
REMARK  288  A    between atoms: _740  and  _741
REMARK  289  A    between atoms: _746  and  _747
REMARK  290  A    between atoms: _749  and  _751
REMARK  291  A    between atoms: _751  and  _752
REMARK  292  A    between atoms: _751  and  _754
REMARK  293  A    between atoms: _754  and  _755
REMARK  294  A    between atoms: _760  and  _761
REMARK  295  A    between atoms: _763  and  _765
REMARK  296  A    between atoms: _765  and  _766
REMARK  297  A    between atoms: _765  and  _768
REMARK  298  A    between atoms: _768  and  _769
REMARK  299  A    between atoms: _769  and  _770
REMARK  300  A    between atoms: _770  and  _771
REMARK  301  A    between atoms: _780  and  _782
REMARK  302  A    between atoms: _782  and  _783
REMARK  303  A    between atoms: _786  and  _788
REMARK  304  A    between atoms: _788  and  _789
REMARK  305  A    between atoms: _788  and  _791
REMARK  306  A    between atoms: _791  and  _792
REMARK  307  A    between atoms: _797  and  _798
REMARK  308  A    between atoms: _800  and  _802
REMARK  309  A    between atoms: _802  and  _803
REMARK  310  A    between atoms: _802  and  _805
REMARK  311  A    between atoms: _805  and  _806
REMARK  312  A    between atoms: _809  and  _811
REMARK  313  A    between atoms: _811  and  _812
REMARK  314  A    between atoms: _811  and  _814
REMARK  315  A    between atoms: _814  and  _815
REMARK  316  A    between atoms: _815  and  _816
REMARK  317  A    between atoms: _819  and  _821
REMARK  318  A    between atoms: _821  and  _822
REMARK  319  A    between atoms: _821  and  _824
REMARK  320  A    between atoms: _826  and  _828
REMARK  321  A    between atoms: _828  and  _829
REMARK  322  A    between atoms: _828  and  _831
REMARK  323  A    between atoms: _834  and  _836
REMARK  324  A    between atoms: _836  and  _837
REMARK  325  A    between atoms: _836  and  _839
REMARK  326  A    between atoms: _839  and  _840
REMARK  327  A    between atoms: _840  and  _841
REMARK  328  A    between atoms: _844  and  _846
REMARK  329  A    between atoms: _846  and  _847
REMARK  330  A    between atoms: _846  and  _849
REMARK  331  A    between atoms: _849  and  _850
REMARK  332  A    between atoms: _860  and  _862
REMARK  333  A    between atoms: _862  and  _863
REMARK  334  A    between atoms: _862  and  _865
REMARK  335  A    between atoms: _865  and  _866
REMARK  336  A    between atoms: _869  and  _871
REMARK  337  A    between atoms: _871  and  _872
REMARK  338  A    between atoms: _871  and  _874
REMARK  339  A    between atoms: _874  and  _875
REMARK  340  A    between atoms: _875  and  _876
REMARK  341  A    between atoms: _876  and  _877
REMARK  342  A    between atoms: _886  and  _888
REMARK  343  A    between atoms: _888  and  _889
REMARK  344  A    between atoms: _888  and  _891
REMARK  345  A    between atoms: _891  and  _892
REMARK  346  A    between atoms: _897  and  _898
REMARK                            x       y       z     vdW  Elec       q    Type
REMARK                         _______ _______ _______ _____ _____    ______ ____
ROOT
ATOM      1  O   HOH     1       7.332 -22.477  -0.944  0.00  0.00    +0.000 OA
ENDROOT
TORSDOF 0
REMARK  Name = ../refined-set-2016/3ery/3ery_pocket.pdb
REMARK  346 active torsions:
REMARK  status: ('A' for Active; 'I' for Inactive)
REMARK    1  A    between atoms: _1  and  _3
REMARK    2  A    between atoms: _3  and  _4
REMARK    3  A    between atoms: _3  and  _6
REMARK    4  A    between atoms: _6  and  _7
REMARK    5  A    between atoms: _7  and  _8
REMARK    6  A    between atoms: _10  and  _12
REMARK    7  A    between atoms: _12  and  _13
REMARK    8  A    between atoms: _12  and  _15
REMARK    9  A    between atoms: _15  and  _16
REMARK   10  A    between atoms: _16  and  _17
REMARK   11  A    between atoms: _17  and  _18
REMARK   12  A    between atoms: _27  and  _29
REMARK   13  A    between atoms: _29  and  _30
REMARK   14  A    between atoms: _29  and  _32
REMARK   15  A    between atoms: _32  and  _33
REMARK   16  A    between atoms: _38  and  _39
REMARK   17  A    between atoms: _41  and  _43
REMARK   18  A    between atoms: _43  and  _44
REMARK   19  A    between atoms: _43  and  _46
REMARK   20  A    between atoms: _46  and  _47
REMARK   21  A    between atoms: _52  and  _53
REMARK   22  A    between atoms: _55  and  _57
REMARK   23  A    between atoms: _57  and  _58
REMARK   24  A    between atoms: _57  and  _60
REMARK   25  A    between atoms: _60  and  _61
REMARK   26  A    between atoms: _61  and  _62
REMARK   27  A    between atoms: _65  and  _67
REMARK   28  A    between atoms: _67  and  _68
REMARK   29  A    between atoms: _67  and  _70
REMARK   30  A    between atoms: _70  and  _71
REMARK   31  A    between atoms: _76  and  _77
REMARK   32  A    between atoms: _79  and  _81
REMARK   33  A    between atoms: _81  and  _82
REMARK   34  A    between atoms: _81  and  _84
REMARK   35  A    between atoms: _84  and  _85
REMARK   36  A    between atoms: _87  and  _89
REMARK   37  A    between atoms: _89  and  _90
REMARK   38  A    between atoms: _89  and  _92
REMARK   39  A    between atoms: _95  and  _97
REMARK   40  A    between atoms: _97  and  _98
REMARK   41  A    between atoms: _100  and  _102
REMARK   42  A    between atoms: _102  and  _103
REMARK   43  A    between atoms: _102  and  _105
REMARK   44  A    between atoms: _105  and  _106
REMARK   45  A    between atoms: _112  and  _114
REMARK   46  A    between atoms: _114  and  _115
REMARK   47  A    between atoms: _114  and  _117
REMARK   48  A    between atoms: _120  and  _122
REMARK   49  A    between atoms: _122  and  _123
REMARK   50  A    between atoms: _122  and  _125
REMARK   51  A    between atoms: _125  and  _126
REMARK   52  A    between atoms: _132  and  _134
REMARK   53  A    between atoms: _134  and  _135
REMARK   54  A    between atoms: _134  and  _137
REMARK   55  A    between atoms: _137  and  _138
REMARK   56  A    between atoms: _143  and  _144
REMARK   57  A    between atoms: _146  and  _148
REMARK   58  A    between atoms: _148  and  _149
REMARK   59  A    between atoms: _148  and  _151
REMARK   60  A    between atoms: _151  and  _152
REMARK   61  A    between atoms: _152  and  _153
REMARK   62  A    between atoms: _156  and  _158
REMARK   63  A    between atoms: _158  and  _159
REMARK   64  A    between atoms: _158  and  _161
REMARK   65  A    between atoms: _161  and  _162
REMARK   66  A    between atoms: _162  and  _163
REMARK   67  A    between atoms: _166  and  _168
REMARK   68  A    between atoms: _168  and  _169
REMARK   69  A    between atoms: _168  and  _171
REMARK   70  A    between atoms: _171  and  _172
REMARK   71  A    between atoms: _177  and  _178
REMARK   72  A    between atoms: _180  and  _182
REMARK   73  A    between atoms: _182  and  _183
REMARK   74  A    between atoms: _182  and  _185
REMARK   75  A    between atoms: _185  and  _186
REMARK   76  A    between atoms: _196  and  _198
REMARK   77  A    between atoms: _198  and  _199
REMARK   78  A    between atoms: _198  and  _201
REMARK   79  A    between atoms: _201  and  _202
REMARK   80  A    between atoms: _202  and  _203
REMARK   81  A    between atoms: _206  and  _208
REMARK   82  A    between atoms: _208  and  _209
REMARK   83  A    between atoms: _208  and  _211
REMARK   84  A    between atoms: _211  and  _212
REMARK   85  A    between atoms: _212  and  _213
REMARK   86  A    between atoms: _213  and  _214
REMARK   87  A    between atoms: _223  and  _225
REMARK   88  A    between atoms: _225  and  _226
REMARK   89  A    between atoms: _225  and  _228
REMARK   90  A    between atoms: _228  and  _229
REMARK   91  A    between atoms: _232  and  _234
REMARK   92  A    between atoms: _234  and  _235
REMARK   93  A    between atoms: _234  and  _237
REMARK   94  A    between atoms: _237  and  _238
REMARK   95  A    between atoms: _241  and  _243
REMARK   96  A    between atoms: _243  and  _244
REMARK   97  A    between atoms: _243  and  _246
REMARK   98  A    between atoms: _246  and  _247
REMARK   99  A    between atoms: _247  and  _248
REMARK  100  A    between atoms: _253  and  _255
REMARK  101  A    between atoms: _255  and  _256
REMARK  102  A    between atoms: _255  and  _258
REMARK  103  A    between atoms: _261  and  _263
REMARK  104  A    between atoms: _263  and  _264
REMARK  105  A    between atoms: _267  and  _269
REMARK  106  A    between atoms: _269  and  _270
REMARK  107  A    between atoms: _269  and  _272
REMARK  108  A    between atoms: _272  and  _273
REMARK  109  A    between atoms: _273  and  _274
REMARK  110  A    between atoms: _274  and  _275
REMARK  111  A    between atoms: _275  and  _276
REMARK  112  A    between atoms: _280  and  _282
REMARK  113  A    between atoms: _282  and  _283
REMARK  114  A    between atoms: _285  and  _287
REMARK  115  A    between atoms: _287  and  _288
REMARK  116  A    between atoms: _287  and  _290
REMARK  117  A    between atoms: _290  and  _291
REMARK  118  A    between atoms: _291  and  _292
REMARK  119  A    between atoms: _297  and  _299
REMARK  120  A    between atoms: _299  and  _300
REMARK  121  A    between atoms: _299  and  _302
REMARK  122  A    between atoms: _302  and  _303
REMARK  123  A    between atoms: _303  and  _304
REMARK  124  A    between atoms: _309  and  _311
REMARK  125  A    between atoms: _311  and  _312
REMARK  126  A    between atoms: _311  and  _314
REMARK  127  A    between atoms: _314  and  _315
REMARK  128  A    between atoms: _325  and  _327
REMARK  129  A    between atoms: _327  and  _328
REMARK  130  A    between atoms: _327  and  _330
REMARK  131  A    between atoms: _330  and  _331
REMARK  132  A    between atoms: _337  and  _339
REMARK  133  A    between atoms: _339  and  _340
REMARK  134  A    between atoms: _339  and  _342
REMARK  135  A    between atoms: _345  and  _347
REMARK  136  A    between atoms: _347  and  _348
REMARK  137  A    between atoms: _347  and  _350
REMARK  138  A    between atoms: _350  and  _351
REMARK  139  A    between atoms: _356  and  _358
REMARK  140  A    between atoms: _358  and  _359
REMARK  141  A    between atoms: _358  and  _361
REMARK  142  A    between atoms: _361  and  _362
REMARK  143  A    between atoms: _365  and  _367
REMARK  144  A    between atoms: _367  and  _368
REMARK  145  A    between atoms: _367  and  _370
REMARK  146  A    between atoms: _370  and  _371
REMARK  147  A    between atoms: _371  and  _372
REMARK  148  A    between atoms: _372  and  _373
REMARK  149  A    between atoms: _382  and  _384
REMARK  150  A    between atoms: _384  and  _385
REMARK  151  A    between atoms: _384  and  _387
REMARK  152  A    between atoms: _387  and  _388
REMARK  153  A    between atoms: _391  and  _393
REMARK  154  A    between atoms: _393  and  _394
REMARK  155  A    between atoms: _393  and  _396
REMARK  156  A    between atoms: _396  and  _397
REMARK  157  A    between atoms: _400  and  _402
REMARK  158  A    between atoms: _402  and  _403
REMARK  159  A    between atoms: _402  and  _405
REMARK  160  A    between atoms: _405  and  _406
REMARK  161  A    between atoms: _409  and  _411
REMARK  162  A    between atoms: _411  and  _412
REMARK  163  A    between atoms: _411  and  _414
REMARK  164  A    between atoms: _414  and  _415
REMARK  165  A    between atoms: _420  and  _421
REMARK  166  A    between atoms: _423  and  _425
REMARK  167  A    between atoms: _425  and  _426
REMARK  168  A    between atoms: _425  and  _428
REMARK  169  A    between atoms: _428  and  _429
REMARK  170  A    between atoms: _432  and  _434
REMARK  171  A    between atoms: _434  and  _435
REMARK  172  A    between atoms: _434  and  _437
REMARK  173  A    between atoms: _437  and  _438
REMARK  174  A    between atoms: _438  and  _439
REMARK  175  A    between atoms: _444  and  _446
REMARK  176  A    between atoms: _446  and  _447
REMARK  177  A    between atoms: _446  and  _449
REMARK  178  A    between atoms: _449  and  _450
REMARK  179  A    between atoms: _450  and  _451
REMARK  180  A    between atoms: _451  and  _452
REMARK  181  A    between atoms: _461  and  _463
REMARK  182  A    between atoms: _463  and  _464
REMARK  183  A    between atoms: _463  and  _466
REMARK  184  A    between atoms: _466  and  _467
REMARK  185  A    between atoms: _472  and  _473
REMARK  186  A    between atoms: _475  and  _477
REMARK  187  A    between atoms: _477  and  _478
REMARK  188  A    between atoms: _480  and  _482
REMARK  189  A    between atoms: _482  and  _483
REMARK  190  A    between atoms: _482  and  _485
REMARK  191  A    between atoms: _485  and  _486
REMARK  192  A    between atoms: _491  and  _492
REMARK  193  A    between atoms: _494  and  _496
REMARK  194  A    between atoms: _496  and  _497
REMARK  195  A    between atoms: _496  and  _499
REMARK  196  A    between atoms: _499  and  _500
REMARK  197  A    between atoms: _500  and  _501
REMARK  198  A    between atoms: _504  and  _506
REMARK  199  A    between atoms: _506  and  _507
REMARK  200  A    between atoms: _506  and  _509
REMARK  201  A    between atoms: _509  and  _510
REMARK  202  A    between atoms: _516  and  _518
REMARK  203  A    between atoms: _518  and  _519
REMARK  204  A    between atoms: _522  and  _524
REMARK  205  A    between atoms: _524  and  _525
REMARK  206  A    between atoms: _524  and  _527
REMARK  207  A    between atoms: _527  and  _528
REMARK  208  A    between atoms: _533  and  _534
REMARK  209  A    between atoms: _536  and  _538
REMARK  210  A    between atoms: _538  and  _539
REMARK  211  A    between atoms: _538  and  _541
REMARK  212  A    between atoms: _541  and  _542
REMARK  213  A    between atoms: _547  and  _548
REMARK  214  A    between atoms: _550  and  _552
REMARK  215  A    between atoms: _552  and  _553
REMARK  216  A    between atoms: _552  and  _555
REMARK  217  A    between atoms: _555  and  _556
REMARK  218  A    between atoms: _559  and  _561
REMARK  219  A    between atoms: _561  and  _562
REMARK  220  A    between atoms: _561  and  _564
REMARK  221  A    between atoms: _564  and  _565
REMARK  222  A    between atoms: _575  and  _577
REMARK  223  A    between atoms: _577  and  _578
REMARK  224  A    between atoms: _581  and  _583
REMARK  225  A    between atoms: _583  and  _584
REMARK  226  A    between atoms: _587  and  _589
REMARK  227  A    between atoms: _589  and  _590
REMARK  228  A    between atoms: _589  and  _592
REMARK  229  A    between atoms: _592  and  _593
REMARK  230  A    between atoms: _593  and  _594
REMARK  231  A    between atoms: _599  and  _601
REMARK  232  A    between atoms: _601  and  _602
REMARK  233  A    between atoms: _601  and  _604
REMARK  234  A    between atoms: _604  and  _605
REMARK  235  A    between atoms: _608  and  _610
REMARK  236  A    between atoms: _610  and  _611
REMARK  237  A    between atoms: _610  and  _613
REMARK  238  A    between atoms: _613  and  _614
REMARK  239  A    between atoms: _617  and  _619
REMARK  240  A    between atoms: _619  and  _620
REMARK  241  A    between atoms: _619  and  _622
REMARK  242  A    between atoms: _622  and  _623
REMARK  243  A    between atoms: _623  and  _624
REMARK  244  A    between atoms: _624  and  _625
REMARK  245  A    between atoms: _634  and  _636
REMARK  246  A    between atoms: _636  and  _637
REMARK  247  A    between atoms: _636  and  _639
REMARK  248  A    between atoms: _639  and  _640
REMARK  249  A    between atoms: _640  and  _641
REMARK  250  A    between atoms: _641  and  _642
REMARK  251  A    between atoms: _651  and  _653
REMARK  252  A    between atoms: _653  and  _654
REMARK  253  A    between atoms: _653  and  _656
REMARK  254  A    between atoms: _656  and  _657
REMARK  255  A    between atoms: _657  and  _658
REMARK  256  A    between atoms: _658  and  _659
REMARK  257  A    between atoms: _659  and  _660
REMARK  258  A    between atoms: _664  and  _666
REMARK  259  A    between atoms: _666  and  _667
REMARK  260  A    between atoms: _666  and  _669
REMARK  261  A    between atoms: _669  and  _670
REMARK  262  A    between atoms: _680  and  _682
REMARK  263  A    between atoms: _682  and  _683
REMARK  264  A    between atoms: _682  and  _685
REMARK  265  A    between atoms: _685  and  _686
REMARK  266  A    between atoms: _686  and  _687
REMARK  267  A    between atoms: _690  and  _692
REMARK  268  A    between atoms: _692  and  _693
REMARK  269  A    between atoms: _692  and  _695
REMARK  270  A    between atoms: _695  and  _696
REMARK  271  A    between atoms: _696  and  _697
REMARK  272  A    between atoms: _702  and  _704
REMARK  273  A    between atoms: _704  and  _705
REMARK  274  A    between atoms: _708  and  _710
REMARK  275  A    between atoms: _710  and  _711
REMARK  276  A    between atoms: _713  and  _715
REMARK  277  A    between atoms: _715  and  _716
REMARK  278  A    between atoms: _719  and  _721
REMARK  279  A    between atoms: _721  and  _722
REMARK  280  A    between atoms: _725  and  _727
REMARK  281  A    between atoms: _727  and  _728
REMARK  282  A    between atoms: _727  and  _730
REMARK  283  A    between atoms: _730  and  _731
REMARK  284  A    between atoms: _731  and  _732
REMARK  285  A    between atoms: _735  and  _737
REMARK  286  A    between atoms: _737  and  _738
REMARK  287  A    between atoms: _737  and  _740
REMARK  288  A    between atoms: _740  and  _741
REMARK  289  A    between atoms: _746  and  _747
REMARK  290  A    between atoms: _749  and  _751
REMARK  291  A    between atoms: _751  and  _752
REMARK  292  A    between atoms: _751  and  _754
REMARK  293  A    between atoms: _754  and  _755
REMARK  294  A    between atoms: _760  and  _761
REMARK  295  A    between atoms: _763  and  _765
REMARK  296  A    between atoms: _765  and  _766
REMARK  297  A    between atoms: _765  and  _768
REMARK  298  A    between atoms: _768  and  _769
REMARK  299  A    between atoms: _769  and  _770
REMARK  300  A    between atoms: _770  and  _771
REMARK  301  A    between atoms: _780  and  _782
REMARK  302  A    between atoms: _782  and  _783
REMARK  303  A    between atoms: _786  and  _788
REMARK  304  A    between atoms: _788  and  _789
REMARK  305  A    between atoms: _788  and  _791
REMARK  306  A    between atoms: _791  and  _792
REMARK  307  A    between atoms: _797  and  _798
REMARK  308  A    between atoms: _800  and  _802
REMARK  309  A    between atoms: _802  and  _803
REMARK  310  A    between atoms: _802  and  _805
REMARK  311  A    between atoms: _805  and  _806
REMARK  312  A    between atoms: _809  and  _811
REMARK  313  A    between atoms: _811  and  _812
REMARK  314  A    between atoms: _811  and  _814
REMARK  315  A    between atoms: _814  and  _815
REMARK  316  A    between atoms: _815  and  _816
REMARK  317  A    between atoms: _819  and  _821
REMARK  318  A    between atoms: _821  and  _822
REMARK  319  A    between atoms: _821  and  _824
REMARK  320  A    between atoms: _826  and  _828
REMARK  321  A    between atoms: _828  and  _829
REMARK  322  A    between atoms: _828  and  _831
REMARK  323  A    between atoms: _834  and  _836
REMARK  324  A    between atoms: _836  and  _837
REMARK  325  A    between atoms: _836  and  _839
REMARK  326  A    between atoms: _839  and  _840
REMARK  327  A    between atoms: _840  and  _841
REMARK  328  A    between atoms: _844  and  _846
REMARK  329  A    between atoms: _846  and  _847
REMARK  330  A    between atoms: _846  and  _849
REMARK  331  A    between atoms: _849  and  _850
REMARK  332  A    between atoms: _860  and  _862
REMARK  333  A    between atoms: _862  and  _863
REMARK  334  A    between atoms: _862  and  _865
REMARK  335  A    between atoms: _865  and  _866
REMARK  336  A    between atoms: _869  and  _871
REMARK  337  A    between atoms: _871  and  _872
REMARK  338  A    between atoms: _871  and  _874
REMARK  339  A    between atoms: _874  and  _875
REMARK  340  A    between atoms: _875  and  _876
REMARK  341  A    between atoms: _876  and  _877
REMARK  342  A    between atoms: _886  and  _888
REMARK  343  A    between atoms: _888  and  _889
REMARK  344  A    between atoms: _888  and  _891
REMARK  345  A    between atoms: _891  and  _892
REMARK  346  A    between atoms: _897  and  _898
REMARK                            x       y       z     vdW  Elec       q    Type
REMARK                         _______ _______ _______ _____ _____    ______ ____
ROOT
ATOM      1  O   HOH     1       7.907 -16.264   8.033  0.00  0.00    +0.000 OA
ENDROOT
TORSDOF 0
REMARK  Name = ../refined-set-2016/3ery/3ery_pocket.pdb
REMARK  346 active torsions:
REMARK  status: ('A' for Active; 'I' for Inactive)
REMARK    1  A    between atoms: _1  and  _3
REMARK    2  A    between atoms: _3  and  _4
REMARK    3  A    between atoms: _3  and  _6
REMARK    4  A    between atoms: _6  and  _7
REMARK    5  A    between atoms: _7  and  _8
REMARK    6  A    between atoms: _10  and  _12
REMARK    7  A    between atoms: _12  and  _13
REMARK    8  A    between atoms: _12  and  _15
REMARK    9  A    between atoms: _15  and  _16
REMARK   10  A    between atoms: _16  and  _17
REMARK   11  A    between atoms: _17  and  _18
REMARK   12  A    between atoms: _27  and  _29
REMARK   13  A    between atoms: _29  and  _30
REMARK   14  A    between atoms: _29  and  _32
REMARK   15  A    between atoms: _32  and  _33
REMARK   16  A    between atoms: _38  and  _39
REMARK   17  A    between atoms: _41  and  _43
REMARK   18  A    between atoms: _43  and  _44
REMARK   19  A    between atoms: _43  and  _46
REMARK   20  A    between atoms: _46  and  _47
REMARK   21  A    between atoms: _52  and  _53
REMARK   22  A    between atoms: _55  and  _57
REMARK   23  A    between atoms: _57  and  _58
REMARK   24  A    between atoms: _57  and  _60
REMARK   25  A    between atoms: _60  and  _61
REMARK   26  A    between atoms: _61  and  _62
REMARK   27  A    between atoms: _65  and  _67
REMARK   28  A    between atoms: _67  and  _68
REMARK   29  A    between atoms: _67  and  _70
REMARK   30  A    between atoms: _70  and  _71
REMARK   31  A    between atoms: _76  and  _77
REMARK   32  A    between atoms: _79  and  _81
REMARK   33  A    between atoms: _81  and  _82
REMARK   34  A    between atoms: _81  and  _84
REMARK   35  A    between atoms: _84  and  _85
REMARK   36  A    between atoms: _87  and  _89
REMARK   37  A    between atoms: _89  and  _90
REMARK   38  A    between atoms: _89  and  _92
REMARK   39  A    between atoms: _95  and  _97
REMARK   40  A    between atoms: _97  and  _98
REMARK   41  A    between atoms: _100  and  _102
REMARK   42  A    between atoms: _102  and  _103
REMARK   43  A    between atoms: _102  and  _105
REMARK   44  A    between atoms: _105  and  _106
REMARK   45  A    between atoms: _112  and  _114
REMARK   46  A    between atoms: _114  and  _115
REMARK   47  A    between atoms: _114  and  _117
REMARK   48  A    between atoms: _120  and  _122
REMARK   49  A    between atoms: _122  and  _123
REMARK   50  A    between atoms: _122  and  _125
REMARK   51  A    between atoms: _125  and  _126
REMARK   52  A    between atoms: _132  and  _134
REMARK   53  A    between atoms: _134  and  _135
REMARK   54  A    between atoms: _134  and  _137
REMARK   55  A    between atoms: _137  and  _138
REMARK   56  A    between atoms: _143  and  _144
REMARK   57  A    between atoms: _146  and  _148
REMARK   58  A    between atoms: _148  and  _149
REMARK   59  A    between atoms: _148  and  _151
REMARK   60  A    between atoms: _151  and  _152
REMARK   61  A    between atoms: _152  and  _153
REMARK   62  A    between atoms: _156  and  _158
REMARK   63  A    between atoms: _158  and  _159
REMARK   64  A    between atoms: _158  and  _161
REMARK   65  A    between atoms: _161  and  _162
REMARK   66  A    between atoms: _162  and  _163
REMARK   67  A    between atoms: _166  and  _168
REMARK   68  A    between atoms: _168  and  _169
REMARK   69  A    between atoms: _168  and  _171
REMARK   70  A    between atoms: _171  and  _172
REMARK   71  A    between atoms: _177  and  _178
REMARK   72  A    between atoms: _180  and  _182
REMARK   73  A    between atoms: _182  and  _183
REMARK   74  A    between atoms: _182  and  _185
REMARK   75  A    between atoms: _185  and  _186
REMARK   76  A    between atoms: _196  and  _198
REMARK   77  A    between atoms: _198  and  _199
REMARK   78  A    between atoms: _198  and  _201
REMARK   79  A    between atoms: _201  and  _202
REMARK   80  A    between atoms: _202  and  _203
REMARK   81  A    between atoms: _206  and  _208
REMARK   82  A    between atoms: _208  and  _209
REMARK   83  A    between atoms: _208  and  _211
REMARK   84  A    between atoms: _211  and  _212
REMARK   85  A    between atoms: _212  and  _213
REMARK   86  A    between atoms: _213  and  _214
REMARK   87  A    between atoms: _223  and  _225
REMARK   88  A    between atoms: _225  and  _226
REMARK   89  A    between atoms: _225  and  _228
REMARK   90  A    between atoms: _228  and  _229
REMARK   91  A    between atoms: _232  and  _234
REMARK   92  A    between atoms: _234  and  _235
REMARK   93  A    between atoms: _234  and  _237
REMARK   94  A    between atoms: _237  and  _238
REMARK   95  A    between atoms: _241  and  _243
REMARK   96  A    between atoms: _243  and  _244
REMARK   97  A    between atoms: _243  and  _246
REMARK   98  A    between atoms: _246  and  _247
REMARK   99  A    between atoms: _247  and  _248
REMARK  100  A    between atoms: _253  and  _255
REMARK  101  A    between atoms: _255  and  _256
REMARK  102  A    between atoms: _255  and  _258
REMARK  103  A    between atoms: _261  and  _263
REMARK  104  A    between atoms: _263  and  _264
REMARK  105  A    between atoms: _267  and  _269
REMARK  106  A    between atoms: _269  and  _270
REMARK  107  A    between atoms: _269  and  _272
REMARK  108  A    between atoms: _272  and  _273
REMARK  109  A    between atoms: _273  and  _274
REMARK  110  A    between atoms: _274  and  _275
REMARK  111  A    between atoms: _275  and  _276
REMARK  112  A    between atoms: _280  and  _282
REMARK  113  A    between atoms: _282  and  _283
REMARK  114  A    between atoms: _285  and  _287
REMARK  115  A    between atoms: _287  and  _288
REMARK  116  A    between atoms: _287  and  _290
REMARK  117  A    between atoms: _290  and  _291
REMARK  118  A    between atoms: _291  and  _292
REMARK  119  A    between atoms: _297  and  _299
REMARK  120  A    between atoms: _299  and  _300
REMARK  121  A    between atoms: _299  and  _302
REMARK  122  A    between atoms: _302  and  _303
REMARK  123  A    between atoms: _303  and  _304
REMARK  124  A    between atoms: _309  and  _311
REMARK  125  A    between atoms: _311  and  _312
REMARK  126  A    between atoms: _311  and  _314
REMARK  127  A    between atoms: _314  and  _315
REMARK  128  A    between atoms: _325  and  _327
REMARK  129  A    between atoms: _327  and  _328
REMARK  130  A    between atoms: _327  and  _330
REMARK  131  A    between atoms: _330  and  _331
REMARK  132  A    between atoms: _337  and  _339
REMARK  133  A    between atoms: _339  and  _340
REMARK  134  A    between atoms: _339  and  _342
REMARK  135  A    between atoms: _345  and  _347
REMARK  136  A    between atoms: _347  and  _348
REMARK  137  A    between atoms: _347  and  _350
REMARK  138  A    between atoms: _350  and  _351
REMARK  139  A    between atoms: _356  and  _358
REMARK  140  A    between atoms: _358  and  _359
REMARK  141  A    between atoms: _358  and  _361
REMARK  142  A    between atoms: _361  and  _362
REMARK  143  A    between atoms: _365  and  _367
REMARK  144  A    between atoms: _367  and  _368
REMARK  145  A    between atoms: _367  and  _370
REMARK  146  A    between atoms: _370  and  _371
REMARK  147  A    between atoms: _371  and  _372
REMARK  148  A    between atoms: _372  and  _373
REMARK  149  A    between atoms: _382  and  _384
REMARK  150  A    between atoms: _384  and  _385
REMARK  151  A    between atoms: _384  and  _387
REMARK  152  A    between atoms: _387  and  _388
REMARK  153  A    between atoms: _391  and  _393
REMARK  154  A    between atoms: _393  and  _394
REMARK  155  A    between atoms: _393  and  _396
REMARK  156  A    between atoms: _396  and  _397
REMARK  157  A    between atoms: _400  and  _402
REMARK  158  A    between atoms: _402  and  _403
REMARK  159  A    between atoms: _402  and  _405
REMARK  160  A    between atoms: _405  and  _406
REMARK  161  A    between atoms: _409  and  _411
REMARK  162  A    between atoms: _411  and  _412
REMARK  163  A    between atoms: _411  and  _414
REMARK  164  A    between atoms: _414  and  _415
REMARK  165  A    between atoms: _420  and  _421
REMARK  166  A    between atoms: _423  and  _425
REMARK  167  A    between atoms: _425  and  _426
REMARK  168  A    between atoms: _425  and  _428
REMARK  169  A    between atoms: _428  and  _429
REMARK  170  A    between atoms: _432  and  _434
REMARK  171  A    between atoms: _434  and  _435
REMARK  172  A    between atoms: _434  and  _437
REMARK  173  A    between atoms: _437  and  _438
REMARK  174  A    between atoms: _438  and  _439
REMARK  175  A    between atoms: _444  and  _446
REMARK  176  A    between atoms: _446  and  _447
REMARK  177  A    between atoms: _446  and  _449
REMARK  178  A    between atoms: _449  and  _450
REMARK  179  A    between atoms: _450  and  _451
REMARK  180  A    between atoms: _451  and  _452
REMARK  181  A    between atoms: _461  and  _463
REMARK  182  A    between atoms: _463  and  _464
REMARK  183  A    between atoms: _463  and  _466
REMARK  184  A    between atoms: _466  and  _467
REMARK  185  A    between atoms: _472  and  _473
REMARK  186  A    between atoms: _475  and  _477
REMARK  187  A    between atoms: _477  and  _478
REMARK  188  A    between atoms: _480  and  _482
REMARK  189  A    between atoms: _482  and  _483
REMARK  190  A    between atoms: _482  and  _485
REMARK  191  A    between atoms: _485  and  _486
REMARK  192  A    between atoms: _491  and  _492
REMARK  193  A    between atoms: _494  and  _496
REMARK  194  A    between atoms: _496  and  _497
REMARK  195  A    between atoms: _496  and  _499
REMARK  196  A    between atoms: _499  and  _500
REMARK  197  A    between atoms: _500  and  _501
REMARK  198  A    between atoms: _504  and  _506
REMARK  199  A    between atoms: _506  and  _507
REMARK  200  A    between atoms: _506  and  _509
REMARK  201  A    between atoms: _509  and  _510
REMARK  202  A    between atoms: _516  and  _518
REMARK  203  A    between atoms: _518  and  _519
REMARK  204  A    between atoms: _522  and  _524
REMARK  205  A    between atoms: _524  and  _525
REMARK  206  A    between atoms: _524  and  _527
REMARK  207  A    between atoms: _527  and  _528
REMARK  208  A    between atoms: _533  and  _534
REMARK  209  A    between atoms: _536  and  _538
REMARK  210  A    between atoms: _538  and  _539
REMARK  211  A    between atoms: _538  and  _541
REMARK  212  A    between atoms: _541  and  _542
REMARK  213  A    between atoms: _547  and  _548
REMARK  214  A    between atoms: _550  and  _552
REMARK  215  A    between atoms: _552  and  _553
REMARK  216  A    between atoms: _552  and  _555
REMARK  217  A    between atoms: _555  and  _556
REMARK  218  A    between atoms: _559  and  _561
REMARK  219  A    between atoms: _561  and  _562
REMARK  220  A    between atoms: _561  and  _564
REMARK  221  A    between atoms: _564  and  _565
REMARK  222  A    between atoms: _575  and  _577
REMARK  223  A    between atoms: _577  and  _578
REMARK  224  A    between atoms: _581  and  _583
REMARK  225  A    between atoms: _583  and  _584
REMARK  226  A    between atoms: _587  and  _589
REMARK  227  A    between atoms: _589  and  _590
REMARK  228  A    between atoms: _589  and  _592
REMARK  229  A    between atoms: _592  and  _593
REMARK  230  A    between atoms: _593  and  _594
REMARK  231  A    between atoms: _599  and  _601
REMARK  232  A    between atoms: _601  and  _602
REMARK  233  A    between atoms: _601  and  _604
REMARK  234  A    between atoms: _604  and  _605
REMARK  235  A    between atoms: _608  and  _610
REMARK  236  A    between atoms: _610  and  _611
REMARK  237  A    between atoms: _610  and  _613
REMARK  238  A    between atoms: _613  and  _614
REMARK  239  A    between atoms: _617  and  _619
REMARK  240  A    between atoms: _619  and  _620
REMARK  241  A    between atoms: _619  and  _622
REMARK  242  A    between atoms: _622  and  _623
REMARK  243  A    between atoms: _623  and  _624
REMARK  244  A    between atoms: _624  and  _625
REMARK  245  A    between atoms: _634  and  _636
REMARK  246  A    between atoms: _636  and  _637
REMARK  247  A    between atoms: _636  and  _639
REMARK  248  A    between atoms: _639  and  _640
REMARK  249  A    between atoms: _640  and  _641
REMARK  250  A    between atoms: _641  and  _642
REMARK  251  A    between atoms: _651  and  _653
REMARK  252  A    between atoms: _653  and  _654
REMARK  253  A    between atoms: _653  and  _656
REMARK  254  A    between atoms: _656  and  _657
REMARK  255  A    between atoms: _657  and  _658
REMARK  256  A    between atoms: _658  and  _659
REMARK  257  A    between atoms: _659  and  _660
REMARK  258  A    between atoms: _664  and  _666
REMARK  259  A    between atoms: _666  and  _667
REMARK  260  A    between atoms: _666  and  _669
REMARK  261  A    between atoms: _669  and  _670
REMARK  262  A    between atoms: _680  and  _682
REMARK  263  A    between atoms: _682  and  _683
REMARK  264  A    between atoms: _682  and  _685
REMARK  265  A    between atoms: _685  and  _686
REMARK  266  A    between atoms: _686  and  _687
REMARK  267  A    between atoms: _690  and  _692
REMARK  268  A    between atoms: _692  and  _693
REMARK  269  A    between atoms: _692  and  _695
REMARK  270  A    between atoms: _695  and  _696
REMARK  271  A    between atoms: _696  and  _697
REMARK  272  A    between atoms: _702  and  _704
REMARK  273  A    between atoms: _704  and  _705
REMARK  274  A    between atoms: _708  and  _710
REMARK  275  A    between atoms: _710  and  _711
REMARK  276  A    between atoms: _713  and  _715
REMARK  277  A    between atoms: _715  and  _716
REMARK  278  A    between atoms: _719  and  _721
REMARK  279  A    between atoms: _721  and  _722
REMARK  280  A    between atoms: _725  and  _727
REMARK  281  A    between atoms: _727  and  _728
REMARK  282  A    between atoms: _727  and  _730
REMARK  283  A    between atoms: _730  and  _731
REMARK  284  A    between atoms: _731  and  _732
REMARK  285  A    between atoms: _735  and  _737
REMARK  286  A    between atoms: _737  and  _738
REMARK  287  A    between atoms: _737  and  _740
REMARK  288  A    between atoms: _740  and  _741
REMARK  289  A    between atoms: _746  and  _747
REMARK  290  A    between atoms: _749  and  _751
REMARK  291  A    between atoms: _751  and  _752
REMARK  292  A    between atoms: _751  and  _754
REMARK  293  A    between atoms: _754  and  _755
REMARK  294  A    between atoms: _760  and  _761
REMARK  295  A    between atoms: _763  and  _765
REMARK  296  A    between atoms: _765  and  _766
REMARK  297  A    between atoms: _765  and  _768
REMARK  298  A    between atoms: _768  and  _769
REMARK  299  A    between atoms: _769  and  _770
REMARK  300  A    between atoms: _770  and  _771
REMARK  301  A    between atoms: _780  and  _782
REMARK  302  A    between atoms: _782  and  _783
REMARK  303  A    between atoms: _786  and  _788
REMARK  304  A    between atoms: _788  and  _789
REMARK  305  A    between atoms: _788  and  _791
REMARK  306  A    between atoms: _791  and  _792
REMARK  307  A    between atoms: _797  and  _798
REMARK  308  A    between atoms: _800  and  _802
REMARK  309  A    between atoms: _802  and  _803
REMARK  310  A    between atoms: _802  and  _805
REMARK  311  A    between atoms: _805  and  _806
REMARK  312  A    between atoms: _809  and  _811
REMARK  313  A    between atoms: _811  and  _812
REMARK  314  A    between atoms: _811  and  _814
REMARK  315  A    between atoms: _814  and  _815
REMARK  316  A    between atoms: _815  and  _816
REMARK  317  A    between atoms: _819  and  _821
REMARK  318  A    between atoms: _821  and  _822
REMARK  319  A    between atoms: _821  and  _824
REMARK  320  A    between atoms: _826  and  _828
REMARK  321  A    between atoms: _828  and  _829
REMARK  322  A    between atoms: _828  and  _831
REMARK  323  A    between atoms: _834  and  _836
REMARK  324  A    between atoms: _836  and  _837
REMARK  325  A    between atoms: _836  and  _839
REMARK  326  A    between atoms: _839  and  _840
REMARK  327  A    between atoms: _840  and  _841
REMARK  328  A    between atoms: _844  and  _846
REMARK  329  A    between atoms: _846  and  _847
REMARK  330  A    between atoms: _846  and  _849
REMARK  331  A    between atoms: _849  and  _850
REMARK  332  A    between atoms: _860  and  _862
REMARK  333  A    between atoms: _862  and  _863
REMARK  334  A    between atoms: _862  and  _865
REMARK  335  A    between atoms: _865  and  _866
REMARK  336  A    between atoms: _869  and  _871
REMARK  337  A    between atoms: _871  and  _872
REMARK  338  A    between atoms: _871  and  _874
REMARK  339  A    between atoms: _874  and  _875
REMARK  340  A    between atoms: _875  and  _876
REMARK  341  A    between atoms: _876  and  _877
REMARK  342  A    between atoms: _886  and  _888
REMARK  343  A    between atoms: _888  and  _889
REMARK  344  A    between atoms: _888  and  _891
REMARK  345  A    between atoms: _891  and  _892
REMARK  346  A    between atoms: _897  and  _898
REMARK                            x       y       z     vdW  Elec       q    Type
REMARK                         _______ _______ _______ _____ _____    ______ ____
ROOT
ATOM      1  O   HOH     1      13.449  -3.627   0.998  0.00  0.00    +0.000 OA
ENDROOT
TORSDOF 0
REMARK  Name = ../refined-set-2016/3ery/3ery_pocket.pdb
REMARK  346 active torsions:
REMARK  status: ('A' for Active; 'I' for Inactive)
REMARK    1  A    between atoms: _1  and  _3
REMARK    2  A    between atoms: _3  and  _4
REMARK    3  A    between atoms: _3  and  _6
REMARK    4  A    between atoms: _6  and  _7
REMARK    5  A    between atoms: _7  and  _8
REMARK    6  A    between atoms: _10  and  _12
REMARK    7  A    between atoms: _12  and  _13
REMARK    8  A    between atoms: _12  and  _15
REMARK    9  A    between atoms: _15  and  _16
REMARK   10  A    between atoms: _16  and  _17
REMARK   11  A    between atoms: _17  and  _18
REMARK   12  A    between atoms: _27  and  _29
REMARK   13  A    between atoms: _29  and  _30
REMARK   14  A    between atoms: _29  and  _32
REMARK   15  A    between atoms: _32  and  _33
REMARK   16  A    between atoms: _38  and  _39
REMARK   17  A    between atoms: _41  and  _43
REMARK   18  A    between atoms: _43  and  _44
REMARK   19  A    between atoms: _43  and  _46
REMARK   20  A    between atoms: _46  and  _47
REMARK   21  A    between atoms: _52  and  _53
REMARK   22  A    between atoms: _55  and  _57
REMARK   23  A    between atoms: _57  and  _58
REMARK   24  A    between atoms: _57  and  _60
REMARK   25  A    between atoms: _60  and  _61
REMARK   26  A    between atoms: _61  and  _62
REMARK   27  A    between atoms: _65  and  _67
REMARK   28  A    between atoms: _67  and  _68
REMARK   29  A    between atoms: _67  and  _70
REMARK   30  A    between atoms: _70  and  _71
REMARK   31  A    between atoms: _76  and  _77
REMARK   32  A    between atoms: _79  and  _81
REMARK   33  A    between atoms: _81  and  _82
REMARK   34  A    between atoms: _81  and  _84
REMARK   35  A    between atoms: _84  and  _85
REMARK   36  A    between atoms: _87  and  _89
REMARK   37  A    between atoms: _89  and  _90
REMARK   38  A    between atoms: _89  and  _92
REMARK   39  A    between atoms: _95  and  _97
REMARK   40  A    between atoms: _97  and  _98
REMARK   41  A    between atoms: _100  and  _102
REMARK   42  A    between atoms: _102  and  _103
REMARK   43  A    between atoms: _102  and  _105
REMARK   44  A    between atoms: _105  and  _106
REMARK   45  A    between atoms: _112  and  _114
REMARK   46  A    between atoms: _114  and  _115
REMARK   47  A    between atoms: _114  and  _117
REMARK   48  A    between atoms: _120  and  _122
REMARK   49  A    between atoms: _122  and  _123
REMARK   50  A    between atoms: _122  and  _125
REMARK   51  A    between atoms: _125  and  _126
REMARK   52  A    between atoms: _132  and  _134
REMARK   53  A    between atoms: _134  and  _135
REMARK   54  A    between atoms: _134  and  _137
REMARK   55  A    between atoms: _137  and  _138
REMARK   56  A    between atoms: _143  and  _144
REMARK   57  A    between atoms: _146  and  _148
REMARK   58  A    between atoms: _148  and  _149
REMARK   59  A    between atoms: _148  and  _151
REMARK   60  A    between atoms: _151  and  _152
REMARK   61  A    between atoms: _152  and  _153
REMARK   62  A    between atoms: _156  and  _158
REMARK   63  A    between atoms: _158  and  _159
REMARK   64  A    between atoms: _158  and  _161
REMARK   65  A    between atoms: _161  and  _162
REMARK   66  A    between atoms: _162  and  _163
REMARK   67  A    between atoms: _166  and  _168
REMARK   68  A    between atoms: _168  and  _169
REMARK   69  A    between atoms: _168  and  _171
REMARK   70  A    between atoms: _171  and  _172
REMARK   71  A    between atoms: _177  and  _178
REMARK   72  A    between atoms: _180  and  _182
REMARK   73  A    between atoms: _182  and  _183
REMARK   74  A    between atoms: _182  and  _185
REMARK   75  A    between atoms: _185  and  _186
REMARK   76  A    between atoms: _196  and  _198
REMARK   77  A    between atoms: _198  and  _199
REMARK   78  A    between atoms: _198  and  _201
REMARK   79  A    between atoms: _201  and  _202
REMARK   80  A    between atoms: _202  and  _203
REMARK   81  A    between atoms: _206  and  _208
REMARK   82  A    between atoms: _208  and  _209
REMARK   83  A    between atoms: _208  and  _211
REMARK   84  A    between atoms: _211  and  _212
REMARK   85  A    between atoms: _212  and  _213
REMARK   86  A    between atoms: _213  and  _214
REMARK   87  A    between atoms: _223  and  _225
REMARK   88  A    between atoms: _225  and  _226
REMARK   89  A    between atoms: _225  and  _228
REMARK   90  A    between atoms: _228  and  _229
REMARK   91  A    between atoms: _232  and  _234
REMARK   92  A    between atoms: _234  and  _235
REMARK   93  A    between atoms: _234  and  _237
REMARK   94  A    between atoms: _237  and  _238
REMARK   95  A    between atoms: _241  and  _243
REMARK   96  A    between atoms: _243  and  _244
REMARK   97  A    between atoms: _243  and  _246
REMARK   98  A    between atoms: _246  and  _247
REMARK   99  A    between atoms: _247  and  _248
REMARK  100  A    between atoms: _253  and  _255
REMARK  101  A    between atoms: _255  and  _256
REMARK  102  A    between atoms: _255  and  _258
REMARK  103  A    between atoms: _261  and  _263
REMARK  104  A    between atoms: _263  and  _264
REMARK  105  A    between atoms: _267  and  _269
REMARK  106  A    between atoms: _269  and  _270
REMARK  107  A    between atoms: _269  and  _272
REMARK  108  A    between atoms: _272  and  _273
REMARK  109  A    between atoms: _273  and  _274
REMARK  110  A    between atoms: _274  and  _275
REMARK  111  A    between atoms: _275  and  _276
REMARK  112  A    between atoms: _280  and  _282
REMARK  113  A    between atoms: _282  and  _283
REMARK  114  A    between atoms: _285  and  _287
REMARK  115  A    between atoms: _287  and  _288
REMARK  116  A    between atoms: _287  and  _290
REMARK  117  A    between atoms: _290  and  _291
REMARK  118  A    between atoms: _291  and  _292
REMARK  119  A    between atoms: _297  and  _299
REMARK  120  A    between atoms: _299  and  _300
REMARK  121  A    between atoms: _299  and  _302
REMARK  122  A    between atoms: _302  and  _303
REMARK  123  A    between atoms: _303  and  _304
REMARK  124  A    between atoms: _309  and  _311
REMARK  125  A    between atoms: _311  and  _312
REMARK  126  A    between atoms: _311  and  _314
REMARK  127  A    between atoms: _314  and  _315
REMARK  128  A    between atoms: _325  and  _327
REMARK  129  A    between atoms: _327  and  _328
REMARK  130  A    between atoms: _327  and  _330
REMARK  131  A    between atoms: _330  and  _331
REMARK  132  A    between atoms: _337  and  _339
REMARK  133  A    between atoms: _339  and  _340
REMARK  134  A    between atoms: _339  and  _342
REMARK  135  A    between atoms: _345  and  _347
REMARK  136  A    between atoms: _347  and  _348
REMARK  137  A    between atoms: _347  and  _350
REMARK  138  A    between atoms: _350  and  _351
REMARK  139  A    between atoms: _356  and  _358
REMARK  140  A    between atoms: _358  and  _359
REMARK  141  A    between atoms: _358  and  _361
REMARK  142  A    between atoms: _361  and  _362
REMARK  143  A    between atoms: _365  and  _367
REMARK  144  A    between atoms: _367  and  _368
REMARK  145  A    between atoms: _367  and  _370
REMARK  146  A    between atoms: _370  and  _371
REMARK  147  A    between atoms: _371  and  _372
REMARK  148  A    between atoms: _372  and  _373
REMARK  149  A    between atoms: _382  and  _384
REMARK  150  A    between atoms: _384  and  _385
REMARK  151  A    between atoms: _384  and  _387
REMARK  152  A    between atoms: _387  and  _388
REMARK  153  A    between atoms: _391  and  _393
REMARK  154  A    between atoms: _393  and  _394
REMARK  155  A    between atoms: _393  and  _396
REMARK  156  A    between atoms: _396  and  _397
REMARK  157  A    between atoms: _400  and  _402
REMARK  158  A    between atoms: _402  and  _403
REMARK  159  A    between atoms: _402  and  _405
REMARK  160  A    between atoms: _405  and  _406
REMARK  161  A    between atoms: _409  and  _411
REMARK  162  A    between atoms: _411  and  _412
REMARK  163  A    between atoms: _411  and  _414
REMARK  164  A    between atoms: _414  and  _415
REMARK  165  A    between atoms: _420  and  _421
REMARK  166  A    between atoms: _423  and  _425
REMARK  167  A    between atoms: _425  and  _426
REMARK  168  A    between atoms: _425  and  _428
REMARK  169  A    between atoms: _428  and  _429
REMARK  170  A    between atoms: _432  and  _434
REMARK  171  A    between atoms: _434  and  _435
REMARK  172  A    between atoms: _434  and  _437
REMARK  173  A    between atoms: _437  and  _438
REMARK  174  A    between atoms: _438  and  _439
REMARK  175  A    between atoms: _444  and  _446
REMARK  176  A    between atoms: _446  and  _447
REMARK  177  A    between atoms: _446  and  _449
REMARK  178  A    between atoms: _449  and  _450
REMARK  179  A    between atoms: _450  and  _451
REMARK  180  A    between atoms: _451  and  _452
REMARK  181  A    between atoms: _461  and  _463
REMARK  182  A    between atoms: _463  and  _464
REMARK  183  A    between atoms: _463  and  _466
REMARK  184  A    between atoms: _466  and  _467
REMARK  185  A    between atoms: _472  and  _473
REMARK  186  A    between atoms: _475  and  _477
REMARK  187  A    between atoms: _477  and  _478
REMARK  188  A    between atoms: _480  and  _482
REMARK  189  A    between atoms: _482  and  _483
REMARK  190  A    between atoms: _482  and  _485
REMARK  191  A    between atoms: _485  and  _486
REMARK  192  A    between atoms: _491  and  _492
REMARK  193  A    between atoms: _494  and  _496
REMARK  194  A    between atoms: _496  and  _497
REMARK  195  A    between atoms: _496  and  _499
REMARK  196  A    between atoms: _499  and  _500
REMARK  197  A    between atoms: _500  and  _501
REMARK  198  A    between atoms: _504  and  _506
REMARK  199  A    between atoms: _506  and  _507
REMARK  200  A    between atoms: _506  and  _509
REMARK  201  A    between atoms: _509  and  _510
REMARK  202  A    between atoms: _516  and  _518
REMARK  203  A    between atoms: _518  and  _519
REMARK  204  A    between atoms: _522  and  _524
REMARK  205  A    between atoms: _524  and  _525
REMARK  206  A    between atoms: _524  and  _527
REMARK  207  A    between atoms: _527  and  _528
REMARK  208  A    between atoms: _533  and  _534
REMARK  209  A    between atoms: _536  and  _538
REMARK  210  A    between atoms: _538  and  _539
REMARK  211  A    between atoms: _538  and  _541
REMARK  212  A    between atoms: _541  and  _542
REMARK  213  A    between atoms: _547  and  _548
REMARK  214  A    between atoms: _550  and  _552
REMARK  215  A    between atoms: _552  and  _553
REMARK  216  A    between atoms: _552  and  _555
REMARK  217  A    between atoms: _555  and  _556
REMARK  218  A    between atoms: _559  and  _561
REMARK  219  A    between atoms: _561  and  _562
REMARK  220  A    between atoms: _561  and  _564
REMARK  221  A    between atoms: _564  and  _565
REMARK  222  A    between atoms: _575  and  _577
REMARK  223  A    between atoms: _577  and  _578
REMARK  224  A    between atoms: _581  and  _583
REMARK  225  A    between atoms: _583  and  _584
REMARK  226  A    between atoms: _587  and  _589
REMARK  227  A    between atoms: _589  and  _590
REMARK  228  A    between atoms: _589  and  _592
REMARK  229  A    between atoms: _592  and  _593
REMARK  230  A    between atoms: _593  and  _594
REMARK  231  A    between atoms: _599  and  _601
REMARK  232  A    between atoms: _601  and  _602
REMARK  233  A    between atoms: _601  and  _604
REMARK  234  A    between atoms: _604  and  _605
REMARK  235  A    between atoms: _608  and  _610
REMARK  236  A    between atoms: _610  and  _611
REMARK  237  A    between atoms: _610  and  _613
REMARK  238  A    between atoms: _613  and  _614
REMARK  239  A    between atoms: _617  and  _619
REMARK  240  A    between atoms: _619  and  _620
REMARK  241  A    between atoms: _619  and  _622
REMARK  242  A    between atoms: _622  and  _623
REMARK  243  A    between atoms: _623  and  _624
REMARK  244  A    between atoms: _624  and  _625
REMARK  245  A    between atoms: _634  and  _636
REMARK  246  A    between atoms: _636  and  _637
REMARK  247  A    between atoms: _636  and  _639
REMARK  248  A    between atoms: _639  and  _640
REMARK  249  A    between atoms: _640  and  _641
REMARK  250  A    between atoms: _641  and  _642
REMARK  251  A    between atoms: _651  and  _653
REMARK  252  A    between atoms: _653  and  _654
REMARK  253  A    between atoms: _653  and  _656
REMARK  254  A    between atoms: _656  and  _657
REMARK  255  A    between atoms: _657  and  _658
REMARK  256  A    between atoms: _658  and  _659
REMARK  257  A    between atoms: _659  and  _660
REMARK  258  A    between atoms: _664  and  _666
REMARK  259  A    between atoms: _666  and  _667
REMARK  260  A    between atoms: _666  and  _669
REMARK  261  A    between atoms: _669  and  _670
REMARK  262  A    between atoms: _680  and  _682
REMARK  263  A    between atoms: _682  and  _683
REMARK  264  A    between atoms: _682  and  _685
REMARK  265  A    between atoms: _685  and  _686
REMARK  266  A    between atoms: _686  and  _687
REMARK  267  A    between atoms: _690  and  _692
REMARK  268  A    between atoms: _692  and  _693
REMARK  269  A    between atoms: _692  and  _695
REMARK  270  A    between atoms: _695  and  _696
REMARK  271  A    between atoms: _696  and  _697
REMARK  272  A    between atoms: _702  and  _704
REMARK  273  A    between atoms: _704  and  _705
REMARK  274  A    between atoms: _708  and  _710
REMARK  275  A    between atoms: _710  and  _711
REMARK  276  A    between atoms: _713  and  _715
REMARK  277  A    between atoms: _715  and  _716
REMARK  278  A    between atoms: _719  and  _721
REMARK  279  A    between atoms: _721  and  _722
REMARK  280  A    between atoms: _725  and  _727
REMARK  281  A    between atoms: _727  and  _728
REMARK  282  A    between atoms: _727  and  _730
REMARK  283  A    between atoms: _730  and  _731
REMARK  284  A    between atoms: _731  and  _732
REMARK  285  A    between atoms: _735  and  _737
REMARK  286  A    between atoms: _737  and  _738
REMARK  287  A    between atoms: _737  and  _740
REMARK  288  A    between atoms: _740  and  _741
REMARK  289  A    between atoms: _746  and  _747
REMARK  290  A    between atoms: _749  and  _751
REMARK  291  A    between atoms: _751  and  _752
REMARK  292  A    between atoms: _751  and  _754
REMARK  293  A    between atoms: _754  and  _755
REMARK  294  A    between atoms: _760  and  _761
REMARK  295  A    between atoms: _763  and  _765
REMARK  296  A    between atoms: _765  and  _766
REMARK  297  A    between atoms: _765  and  _768
REMARK  298  A    between atoms: _768  and  _769
REMARK  299  A    between atoms: _769  and  _770
REMARK  300  A    between atoms: _770  and  _771
REMARK  301  A    between atoms: _780  and  _782
REMARK  302  A    between atoms: _782  and  _783
REMARK  303  A    between atoms: _786  and  _788
REMARK  304  A    between atoms: _788  and  _789
REMARK  305  A    between atoms: _788  and  _791
REMARK  306  A    between atoms: _791  and  _792
REMARK  307  A    between atoms: _797  and  _798
REMARK  308  A    between atoms: _800  and  _802
REMARK  309  A    between atoms: _802  and  _803
REMARK  310  A    between atoms: _802  and  _805
REMARK  311  A    between atoms: _805  and  _806
REMARK  312  A    between atoms: _809  and  _811
REMARK  313  A    between atoms: _811  and  _812
REMARK  314  A    between atoms: _811  and  _814
REMARK  315  A    between atoms: _814  and  _815
REMARK  316  A    between atoms: _815  and  _816
REMARK  317  A    between atoms: _819  and  _821
REMARK  318  A    between atoms: _821  and  _822
REMARK  319  A    between atoms: _821  and  _824
REMARK  320  A    between atoms: _826  and  _828
REMARK  321  A    between atoms: _828  and  _829
REMARK  322  A    between atoms: _828  and  _831
REMARK  323  A    between atoms: _834  and  _836
REMARK  324  A    between atoms: _836  and  _837
REMARK  325  A    between atoms: _836  and  _839
REMARK  326  A    between atoms: _839  and  _840
REMARK  327  A    between atoms: _840  and  _841
REMARK  328  A    between atoms: _844  and  _846
REMARK  329  A    between atoms: _846  and  _847
REMARK  330  A    between atoms: _846  and  _849
REMARK  331  A    between atoms: _849  and  _850
REMARK  332  A    between atoms: _860  and  _862
REMARK  333  A    between atoms: _862  and  _863
REMARK  334  A    between atoms: _862  and  _865
REMARK  335  A    between atoms: _865  and  _866
REMARK  336  A    between atoms: _869  and  _871
REMARK  337  A    between atoms: _871  and  _872
REMARK  338  A    between atoms: _871  and  _874
REMARK  339  A    between atoms: _874  and  _875
REMARK  340  A    between atoms: _875  and  _876
REMARK  341  A    between atoms: _876  and  _877
REMARK  342  A    between atoms: _886  and  _888
REMARK  343  A    between atoms: _888  and  _889
REMARK  344  A    between atoms: _888  and  _891
REMARK  345  A    between atoms: _891  and  _892
REMARK  346  A    between atoms: _897  and  _898
REMARK                            x       y       z     vdW  Elec       q    Type
REMARK                         _______ _______ _______ _____ _____    ______ ____
ROOT
ATOM      1  O   HOH     1      12.923  -7.276  12.047  0.00  0.00    +0.000 OA
ENDROOT
TORSDOF 0
REMARK  Name = ../refined-set-2016/3ery/3ery_pocket.pdb
REMARK  346 active torsions:
REMARK  status: ('A' for Active; 'I' for Inactive)
REMARK    1  A    between atoms: _1  and  _3
REMARK    2  A    between atoms: _3  and  _4
REMARK    3  A    between atoms: _3  and  _6
REMARK    4  A    between atoms: _6  and  _7
REMARK    5  A    between atoms: _7  and  _8
REMARK    6  A    between atoms: _10  and  _12
REMARK    7  A    between atoms: _12  and  _13
REMARK    8  A    between atoms: _12  and  _15
REMARK    9  A    between atoms: _15  and  _16
REMARK   10  A    between atoms: _16  and  _17
REMARK   11  A    between atoms: _17  and  _18
REMARK   12  A    between atoms: _27  and  _29
REMARK   13  A    between atoms: _29  and  _30
REMARK   14  A    between atoms: _29  and  _32
REMARK   15  A    between atoms: _32  and  _33
REMARK   16  A    between atoms: _38  and  _39
REMARK   17  A    between atoms: _41  and  _43
REMARK   18  A    between atoms: _43  and  _44
REMARK   19  A    between atoms: _43  and  _46
REMARK   20  A    between atoms: _46  and  _47
REMARK   21  A    between atoms: _52  and  _53
REMARK   22  A    between atoms: _55  and  _57
REMARK   23  A    between atoms: _57  and  _58
REMARK   24  A    between atoms: _57  and  _60
REMARK   25  A    between atoms: _60  and  _61
REMARK   26  A    between atoms: _61  and  _62
REMARK   27  A    between atoms: _65  and  _67
REMARK   28  A    between atoms: _67  and  _68
REMARK   29  A    between atoms: _67  and  _70
REMARK   30  A    between atoms: _70  and  _71
REMARK   31  A    between atoms: _76  and  _77
REMARK   32  A    between atoms: _79  and  _81
REMARK   33  A    between atoms: _81  and  _82
REMARK   34  A    between atoms: _81  and  _84
REMARK   35  A    between atoms: _84  and  _85
REMARK   36  A    between atoms: _87  and  _89
REMARK   37  A    between atoms: _89  and  _90
REMARK   38  A    between atoms: _89  and  _92
REMARK   39  A    between atoms: _95  and  _97
REMARK   40  A    between atoms: _97  and  _98
REMARK   41  A    between atoms: _100  and  _102
REMARK   42  A    between atoms: _102  and  _103
REMARK   43  A    between atoms: _102  and  _105
REMARK   44  A    between atoms: _105  and  _106
REMARK   45  A    between atoms: _112  and  _114
REMARK   46  A    between atoms: _114  and  _115
REMARK   47  A    between atoms: _114  and  _117
REMARK   48  A    between atoms: _120  and  _122
REMARK   49  A    between atoms: _122  and  _123
REMARK   50  A    between atoms: _122  and  _125
REMARK   51  A    between atoms: _125  and  _126
REMARK   52  A    between atoms: _132  and  _134
REMARK   53  A    between atoms: _134  and  _135
REMARK   54  A    between atoms: _134  and  _137
REMARK   55  A    between atoms: _137  and  _138
REMARK   56  A    between atoms: _143  and  _144
REMARK   57  A    between atoms: _146  and  _148
REMARK   58  A    between atoms: _148  and  _149
REMARK   59  A    between atoms: _148  and  _151
REMARK   60  A    between atoms: _151  and  _152
REMARK   61  A    between atoms: _152  and  _153
REMARK   62  A    between atoms: _156  and  _158
REMARK   63  A    between atoms: _158  and  _159
REMARK   64  A    between atoms: _158  and  _161
REMARK   65  A    between atoms: _161  and  _162
REMARK   66  A    between atoms: _162  and  _163
REMARK   67  A    between atoms: _166  and  _168
REMARK   68  A    between atoms: _168  and  _169
REMARK   69  A    between atoms: _168  and  _171
REMARK   70  A    between atoms: _171  and  _172
REMARK   71  A    between atoms: _177  and  _178
REMARK   72  A    between atoms: _180  and  _182
REMARK   73  A    between atoms: _182  and  _183
REMARK   74  A    between atoms: _182  and  _185
REMARK   75  A    between atoms: _185  and  _186
REMARK   76  A    between atoms: _196  and  _198
REMARK   77  A    between atoms: _198  and  _199
REMARK   78  A    between atoms: _198  and  _201
REMARK   79  A    between atoms: _201  and  _202
REMARK   80  A    between atoms: _202  and  _203
REMARK   81  A    between atoms: _206  and  _208
REMARK   82  A    between atoms: _208  and  _209
REMARK   83  A    between atoms: _208  and  _211
REMARK   84  A    between atoms: _211  and  _212
REMARK   85  A    between atoms: _212  and  _213
REMARK   86  A    between atoms: _213  and  _214
REMARK   87  A    between atoms: _223  and  _225
REMARK   88  A    between atoms: _225  and  _226
REMARK   89  A    between atoms: _225  and  _228
REMARK   90  A    between atoms: _228  and  _229
REMARK   91  A    between atoms: _232  and  _234
REMARK   92  A    between atoms: _234  and  _235
REMARK   93  A    between atoms: _234  and  _237
REMARK   94  A    between atoms: _237  and  _238
REMARK   95  A    between atoms: _241  and  _243
REMARK   96  A    between atoms: _243  and  _244
REMARK   97  A    between atoms: _243  and  _246
REMARK   98  A    between atoms: _246  and  _247
REMARK   99  A    between atoms: _247  and  _248
REMARK  100  A    between atoms: _253  and  _255
REMARK  101  A    between atoms: _255  and  _256
REMARK  102  A    between atoms: _255  and  _258
REMARK  103  A    between atoms: _261  and  _263
REMARK  104  A    between atoms: _263  and  _264
REMARK  105  A    between atoms: _267  and  _269
REMARK  106  A    between atoms: _269  and  _270
REMARK  107  A    between atoms: _269  and  _272
REMARK  108  A    between atoms: _272  and  _273
REMARK  109  A    between atoms: _273  and  _274
REMARK  110  A    between atoms: _274  and  _275
REMARK  111  A    between atoms: _275  and  _276
REMARK  112  A    between atoms: _280  and  _282
REMARK  113  A    between atoms: _282  and  _283
REMARK  114  A    between atoms: _285  and  _287
REMARK  115  A    between atoms: _287  and  _288
REMARK  116  A    between atoms: _287  and  _290
REMARK  117  A    between atoms: _290  and  _291
REMARK  118  A    between atoms: _291  and  _292
REMARK  119  A    between atoms: _297  and  _299
REMARK  120  A    between atoms: _299  and  _300
REMARK  121  A    between atoms: _299  and  _302
REMARK  122  A    between atoms: _302  and  _303
REMARK  123  A    between atoms: _303  and  _304
REMARK  124  A    between atoms: _309  and  _311
REMARK  125  A    between atoms: _311  and  _312
REMARK  126  A    between atoms: _311  and  _314
REMARK  127  A    between atoms: _314  and  _315
REMARK  128  A    between atoms: _325  and  _327
REMARK  129  A    between atoms: _327  and  _328
REMARK  130  A    between atoms: _327  and  _330
REMARK  131  A    between atoms: _330  and  _331
REMARK  132  A    between atoms: _337  and  _339
REMARK  133  A    between atoms: _339  and  _340
REMARK  134  A    between atoms: _339  and  _342
REMARK  135  A    between atoms: _345  and  _347
REMARK  136  A    between atoms: _347  and  _348
REMARK  137  A    between atoms: _347  and  _350
REMARK  138  A    between atoms: _350  and  _351
REMARK  139  A    between atoms: _356  and  _358
REMARK  140  A    between atoms: _358  and  _359
REMARK  141  A    between atoms: _358  and  _361
REMARK  142  A    between atoms: _361  and  _362
REMARK  143  A    between atoms: _365  and  _367
REMARK  144  A    between atoms: _367  and  _368
REMARK  145  A    between atoms: _367  and  _370
REMARK  146  A    between atoms: _370  and  _371
REMARK  147  A    between atoms: _371  and  _372
REMARK  148  A    between atoms: _372  and  _373
REMARK  149  A    between atoms: _382  and  _384
REMARK  150  A    between atoms: _384  and  _385
REMARK  151  A    between atoms: _384  and  _387
REMARK  152  A    between atoms: _387  and  _388
REMARK  153  A    between atoms: _391  and  _393
REMARK  154  A    between atoms: _393  and  _394
REMARK  155  A    between atoms: _393  and  _396
REMARK  156  A    between atoms: _396  and  _397
REMARK  157  A    between atoms: _400  and  _402
REMARK  158  A    between atoms: _402  and  _403
REMARK  159  A    between atoms: _402  and  _405
REMARK  160  A    between atoms: _405  and  _406
REMARK  161  A    between atoms: _409  and  _411
REMARK  162  A    between atoms: _411  and  _412
REMARK  163  A    between atoms: _411  and  _414
REMARK  164  A    between atoms: _414  and  _415
REMARK  165  A    between atoms: _420  and  _421
REMARK  166  A    between atoms: _423  and  _425
REMARK  167  A    between atoms: _425  and  _426
REMARK  168  A    between atoms: _425  and  _428
REMARK  169  A    between atoms: _428  and  _429
REMARK  170  A    between atoms: _432  and  _434
REMARK  171  A    between atoms: _434  and  _435
REMARK  172  A    between atoms: _434  and  _437
REMARK  173  A    between atoms: _437  and  _438
REMARK  174  A    between atoms: _438  and  _439
REMARK  175  A    between atoms: _444  and  _446
REMARK  176  A    between atoms: _446  and  _447
REMARK  177  A    between atoms: _446  and  _449
REMARK  178  A    between atoms: _449  and  _450
REMARK  179  A    between atoms: _450  and  _451
REMARK  180  A    between atoms: _451  and  _452
REMARK  181  A    between atoms: _461  and  _463
REMARK  182  A    between atoms: _463  and  _464
REMARK  183  A    between atoms: _463  and  _466
REMARK  184  A    between atoms: _466  and  _467
REMARK  185  A    between atoms: _472  and  _473
REMARK  186  A    between atoms: _475  and  _477
REMARK  187  A    between atoms: _477  and  _478
REMARK  188  A    between atoms: _480  and  _482
REMARK  189  A    between atoms: _482  and  _483
REMARK  190  A    between atoms: _482  and  _485
REMARK  191  A    between atoms: _485  and  _486
REMARK  192  A    between atoms: _491  and  _492
REMARK  193  A    between atoms: _494  and  _496
REMARK  194  A    between atoms: _496  and  _497
REMARK  195  A    between atoms: _496  and  _499
REMARK  196  A    between atoms: _499  and  _500
REMARK  197  A    between atoms: _500  and  _501
REMARK  198  A    between atoms: _504  and  _506
REMARK  199  A    between atoms: _506  and  _507
REMARK  200  A    between atoms: _506  and  _509
REMARK  201  A    between atoms: _509  and  _510
REMARK  202  A    between atoms: _516  and  _518
REMARK  203  A    between atoms: _518  and  _519
REMARK  204  A    between atoms: _522  and  _524
REMARK  205  A    between atoms: _524  and  _525
REMARK  206  A    between atoms: _524  and  _527
REMARK  207  A    between atoms: _527  and  _528
REMARK  208  A    between atoms: _533  and  _534
REMARK  209  A    between atoms: _536  and  _538
REMARK  210  A    between atoms: _538  and  _539
REMARK  211  A    between atoms: _538  and  _541
REMARK  212  A    between atoms: _541  and  _542
REMARK  213  A    between atoms: _547  and  _548
REMARK  214  A    between atoms: _550  and  _552
REMARK  215  A    between atoms: _552  and  _553
REMARK  216  A    between atoms: _552  and  _555
REMARK  217  A    between atoms: _555  and  _556
REMARK  218  A    between atoms: _559  and  _561
REMARK  219  A    between atoms: _561  and  _562
REMARK  220  A    between atoms: _561  and  _564
REMARK  221  A    between atoms: _564  and  _565
REMARK  222  A    between atoms: _575  and  _577
REMARK  223  A    between atoms: _577  and  _578
REMARK  224  A    between atoms: _581  and  _583
REMARK  225  A    between atoms: _583  and  _584
REMARK  226  A    between atoms: _587  and  _589
REMARK  227  A    between atoms: _589  and  _590
REMARK  228  A    between atoms: _589  and  _592
REMARK  229  A    between atoms: _592  and  _593
REMARK  230  A    between atoms: _593  and  _594
REMARK  231  A    between atoms: _599  and  _601
REMARK  232  A    between atoms: _601  and  _602
REMARK  233  A    between atoms: _601  and  _604
REMARK  234  A    between atoms: _604  and  _605
REMARK  235  A    between atoms: _608  and  _610
REMARK  236  A    between atoms: _610  and  _611
REMARK  237  A    between atoms: _610  and  _613
REMARK  238  A    between atoms: _613  and  _614
REMARK  239  A    between atoms: _617  and  _619
REMARK  240  A    between atoms: _619  and  _620
REMARK  241  A    between atoms: _619  and  _622
REMARK  242  A    between atoms: _622  and  _623
REMARK  243  A    between atoms: _623  and  _624
REMARK  244  A    between atoms: _624  and  _625
REMARK  245  A    between atoms: _634  and  _636
REMARK  246  A    between atoms: _636  and  _637
REMARK  247  A    between atoms: _636  and  _639
REMARK  248  A    between atoms: _639  and  _640
REMARK  249  A    between atoms: _640  and  _641
REMARK  250  A    between atoms: _641  and  _642
REMARK  251  A    between atoms: _651  and  _653
REMARK  252  A    between atoms: _653  and  _654
REMARK  253  A    between atoms: _653  and  _656
REMARK  254  A    between atoms: _656  and  _657
REMARK  255  A    between atoms: _657  and  _658
REMARK  256  A    between atoms: _658  and  _659
REMARK  257  A    between atoms: _659  and  _660
REMARK  258  A    between atoms: _664  and  _666
REMARK  259  A    between atoms: _666  and  _667
REMARK  260  A    between atoms: _666  and  _669
REMARK  261  A    between atoms: _669  and  _670
REMARK  262  A    between atoms: _680  and  _682
REMARK  263  A    between atoms: _682  and  _683
REMARK  264  A    between atoms: _682  and  _685
REMARK  265  A    between atoms: _685  and  _686
REMARK  266  A    between atoms: _686  and  _687
REMARK  267  A    between atoms: _690  and  _692
REMARK  268  A    between atoms: _692  and  _693
REMARK  269  A    between atoms: _692  and  _695
REMARK  270  A    between atoms: _695  and  _696
REMARK  271  A    between atoms: _696  and  _697
REMARK  272  A    between atoms: _702  and  _704
REMARK  273  A    between atoms: _704  and  _705
REMARK  274  A    between atoms: _708  and  _710
REMARK  275  A    between atoms: _710  and  _711
REMARK  276  A    between atoms: _713  and  _715
REMARK  277  A    between atoms: _715  and  _716
REMARK  278  A    between atoms: _719  and  _721
REMARK  279  A    between atoms: _721  and  _722
REMARK  280  A    between atoms: _725  and  _727
REMARK  281  A    between atoms: _727  and  _728
REMARK  282  A    between atoms: _727  and  _730
REMARK  283  A    between atoms: _730  and  _731
REMARK  284  A    between atoms: _731  and  _732
REMARK  285  A    between atoms: _735  and  _737
REMARK  286  A    between atoms: _737  and  _738
REMARK  287  A    between atoms: _737  and  _740
REMARK  288  A    between atoms: _740  and  _741
REMARK  289  A    between atoms: _746  and  _747
REMARK  290  A    between atoms: _749  and  _751
REMARK  291  A    between atoms: _751  and  _752
REMARK  292  A    between atoms: _751  and  _754
REMARK  293  A    between atoms: _754  and  _755
REMARK  294  A    between atoms: _760  and  _761
REMARK  295  A    between atoms: _763  and  _765
REMARK  296  A    between atoms: _765  and  _766
REMARK  297  A    between atoms: _765  and  _768
REMARK  298  A    between atoms: _768  and  _769
REMARK  299  A    between atoms: _769  and  _770
REMARK  300  A    between atoms: _770  and  _771
REMARK  301  A    between atoms: _780  and  _782
REMARK  302  A    between atoms: _782  and  _783
REMARK  303  A    between atoms: _786  and  _788
REMARK  304  A    between atoms: _788  and  _789
REMARK  305  A    between atoms: _788  and  _791
REMARK  306  A    between atoms: _791  and  _792
REMARK  307  A    between atoms: _797  and  _798
REMARK  308  A    between atoms: _800  and  _802
REMARK  309  A    between atoms: _802  and  _803
REMARK  310  A    between atoms: _802  and  _805
REMARK  311  A    between atoms: _805  and  _806
REMARK  312  A    between atoms: _809  and  _811
REMARK  313  A    between atoms: _811  and  _812
REMARK  314  A    between atoms: _811  and  _814
REMARK  315  A    between atoms: _814  and  _815
REMARK  316  A    between atoms: _815  and  _816
REMARK  317  A    between atoms: _819  and  _821
REMARK  318  A    between atoms: _821  and  _822
REMARK  319  A    between atoms: _821  and  _824
REMARK  320  A    between atoms: _826  and  _828
REMARK  321  A    between atoms: _828  and  _829
REMARK  322  A    between atoms: _828  and  _831
REMARK  323  A    between atoms: _834  and  _836
REMARK  324  A    between atoms: _836  and  _837
REMARK  325  A    between atoms: _836  and  _839
REMARK  326  A    between atoms: _839  and  _840
REMARK  327  A    between atoms: _840  and  _841
REMARK  328  A    between atoms: _844  and  _846
REMARK  329  A    between atoms: _846  and  _847
REMARK  330  A    between atoms: _846  and  _849
REMARK  331  A    between atoms: _849  and  _850
REMARK  332  A    between atoms: _860  and  _862
REMARK  333  A    between atoms: _862  and  _863
REMARK  334  A    between atoms: _862  and  _865
REMARK  335  A    between atoms: _865  and  _866
REMARK  336  A    between atoms: _869  and  _871
REMARK  337  A    between atoms: _871  and  _872
REMARK  338  A    between atoms: _871  and  _874
REMARK  339  A    between atoms: _874  and  _875
REMARK  340  A    between atoms: _875  and  _876
REMARK  341  A    between atoms: _876  and  _877
REMARK  342  A    between atoms: _886  and  _888
REMARK  343  A    between atoms: _888  and  _889
REMARK  344  A    between atoms: _888  and  _891
REMARK  345  A    between atoms: _891  and  _892
REMARK  346  A    between atoms: _897  and  _898
REMARK                            x       y       z     vdW  Elec       q    Type
REMARK                         _______ _______ _______ _____ _____    ______ ____
ROOT
ATOM      1  O   HOH     1      16.931 -10.141   6.415  0.00  0.00    +0.000 OA
ENDROOT
TORSDOF 0
REMARK  Name = ../refined-set-2016/3ery/3ery_pocket.pdb
REMARK  346 active torsions:
REMARK  status: ('A' for Active; 'I' for Inactive)
REMARK    1  A    between atoms: _1  and  _3
REMARK    2  A    between atoms: _3  and  _4
REMARK    3  A    between atoms: _3  and  _6
REMARK    4  A    between atoms: _6  and  _7
REMARK    5  A    between atoms: _7  and  _8
REMARK    6  A    between atoms: _10  and  _12
REMARK    7  A    between atoms: _12  and  _13
REMARK    8  A    between atoms: _12  and  _15
REMARK    9  A    between atoms: _15  and  _16
REMARK   10  A    between atoms: _16  and  _17
REMARK   11  A    between atoms: _17  and  _18
REMARK   12  A    between atoms: _27  and  _29
REMARK   13  A    between atoms: _29  and  _30
REMARK   14  A    between atoms: _29  and  _32
REMARK   15  A    between atoms: _32  and  _33
REMARK   16  A    between atoms: _38  and  _39
REMARK   17  A    between atoms: _41  and  _43
REMARK   18  A    between atoms: _43  and  _44
REMARK   19  A    between atoms: _43  and  _46
REMARK   20  A    between atoms: _46  and  _47
REMARK   21  A    between atoms: _52  and  _53
REMARK   22  A    between atoms: _55  and  _57
REMARK   23  A    between atoms: _57  and  _58
REMARK   24  A    between atoms: _57  and  _60
REMARK   25  A    between atoms: _60  and  _61
REMARK   26  A    between atoms: _61  and  _62
REMARK   27  A    between atoms: _65  and  _67
REMARK   28  A    between atoms: _67  and  _68
REMARK   29  A    between atoms: _67  and  _70
REMARK   30  A    between atoms: _70  and  _71
REMARK   31  A    between atoms: _76  and  _77
REMARK   32  A    between atoms: _79  and  _81
REMARK   33  A    between atoms: _81  and  _82
REMARK   34  A    between atoms: _81  and  _84
REMARK   35  A    between atoms: _84  and  _85
REMARK   36  A    between atoms: _87  and  _89
REMARK   37  A    between atoms: _89  and  _90
REMARK   38  A    between atoms: _89  and  _92
REMARK   39  A    between atoms: _95  and  _97
REMARK   40  A    between atoms: _97  and  _98
REMARK   41  A    between atoms: _100  and  _102
REMARK   42  A    between atoms: _102  and  _103
REMARK   43  A    between atoms: _102  and  _105
REMARK   44  A    between atoms: _105  and  _106
REMARK   45  A    between atoms: _112  and  _114
REMARK   46  A    between atoms: _114  and  _115
REMARK   47  A    between atoms: _114  and  _117
REMARK   48  A    between atoms: _120  and  _122
REMARK   49  A    between atoms: _122  and  _123
REMARK   50  A    between atoms: _122  and  _125
REMARK   51  A    between atoms: _125  and  _126
REMARK   52  A    between atoms: _132  and  _134
REMARK   53  A    between atoms: _134  and  _135
REMARK   54  A    between atoms: _134  and  _137
REMARK   55  A    between atoms: _137  and  _138
REMARK   56  A    between atoms: _143  and  _144
REMARK   57  A    between atoms: _146  and  _148
REMARK   58  A    between atoms: _148  and  _149
REMARK   59  A    between atoms: _148  and  _151
REMARK   60  A    between atoms: _151  and  _152
REMARK   61  A    between atoms: _152  and  _153
REMARK   62  A    between atoms: _156  and  _158
REMARK   63  A    between atoms: _158  and  _159
REMARK   64  A    between atoms: _158  and  _161
REMARK   65  A    between atoms: _161  and  _162
REMARK   66  A    between atoms: _162  and  _163
REMARK   67  A    between atoms: _166  and  _168
REMARK   68  A    between atoms: _168  and  _169
REMARK   69  A    between atoms: _168  and  _171
REMARK   70  A    between atoms: _171  and  _172
REMARK   71  A    between atoms: _177  and  _178
REMARK   72  A    between atoms: _180  and  _182
REMARK   73  A    between atoms: _182  and  _183
REMARK   74  A    between atoms: _182  and  _185
REMARK   75  A    between atoms: _185  and  _186
REMARK   76  A    between atoms: _196  and  _198
REMARK   77  A    between atoms: _198  and  _199
REMARK   78  A    between atoms: _198  and  _201
REMARK   79  A    between atoms: _201  and  _202
REMARK   80  A    between atoms: _202  and  _203
REMARK   81  A    between atoms: _206  and  _208
REMARK   82  A    between atoms: _208  and  _209
REMARK   83  A    between atoms: _208  and  _211
REMARK   84  A    between atoms: _211  and  _212
REMARK   85  A    between atoms: _212  and  _213
REMARK   86  A    between atoms: _213  and  _214
REMARK   87  A    between atoms: _223  and  _225
REMARK   88  A    between atoms: _225  and  _226
REMARK   89  A    between atoms: _225  and  _228
REMARK   90  A    between atoms: _228  and  _229
REMARK   91  A    between atoms: _232  and  _234
REMARK   92  A    between atoms: _234  and  _235
REMARK   93  A    between atoms: _234  and  _237
REMARK   94  A    between atoms: _237  and  _238
REMARK   95  A    between atoms: _241  and  _243
REMARK   96  A    between atoms: _243  and  _244
REMARK   97  A    between atoms: _243  and  _246
REMARK   98  A    between atoms: _246  and  _247
REMARK   99  A    between atoms: _247  and  _248
REMARK  100  A    between atoms: _253  and  _255
REMARK  101  A    between atoms: _255  and  _256
REMARK  102  A    between atoms: _255  and  _258
REMARK  103  A    between atoms: _261  and  _263
REMARK  104  A    between atoms: _263  and  _264
REMARK  105  A    between atoms: _267  and  _269
REMARK  106  A    between atoms: _269  and  _270
REMARK  107  A    between atoms: _269  and  _272
REMARK  108  A    between atoms: _272  and  _273
REMARK  109  A    between atoms: _273  and  _274
REMARK  110  A    between atoms: _274  and  _275
REMARK  111  A    between atoms: _275  and  _276
REMARK  112  A    between atoms: _280  and  _282
REMARK  113  A    between atoms: _282  and  _283
REMARK  114  A    between atoms: _285  and  _287
REMARK  115  A    between atoms: _287  and  _288
REMARK  116  A    between atoms: _287  and  _290
REMARK  117  A    between atoms: _290  and  _291
REMARK  118  A    between atoms: _291  and  _292
REMARK  119  A    between atoms: _297  and  _299
REMARK  120  A    between atoms: _299  and  _300
REMARK  121  A    between atoms: _299  and  _302
REMARK  122  A    between atoms: _302  and  _303
REMARK  123  A    between atoms: _303  and  _304
REMARK  124  A    between atoms: _309  and  _311
REMARK  125  A    between atoms: _311  and  _312
REMARK  126  A    between atoms: _311  and  _314
REMARK  127  A    between atoms: _314  and  _315
REMARK  128  A    between atoms: _325  and  _327
REMARK  129  A    between atoms: _327  and  _328
REMARK  130  A    between atoms: _327  and  _330
REMARK  131  A    between atoms: _330  and  _331
REMARK  132  A    between atoms: _337  and  _339
REMARK  133  A    between atoms: _339  and  _340
REMARK  134  A    between atoms: _339  and  _342
REMARK  135  A    between atoms: _345  and  _347
REMARK  136  A    between atoms: _347  and  _348
REMARK  137  A    between atoms: _347  and  _350
REMARK  138  A    between atoms: _350  and  _351
REMARK  139  A    between atoms: _356  and  _358
REMARK  140  A    between atoms: _358  and  _359
REMARK  141  A    between atoms: _358  and  _361
REMARK  142  A    between atoms: _361  and  _362
REMARK  143  A    between atoms: _365  and  _367
REMARK  144  A    between atoms: _367  and  _368
REMARK  145  A    between atoms: _367  and  _370
REMARK  146  A    between atoms: _370  and  _371
REMARK  147  A    between atoms: _371  and  _372
REMARK  148  A    between atoms: _372  and  _373
REMARK  149  A    between atoms: _382  and  _384
REMARK  150  A    between atoms: _384  and  _385
REMARK  151  A    between atoms: _384  and  _387
REMARK  152  A    between atoms: _387  and  _388
REMARK  153  A    between atoms: _391  and  _393
REMARK  154  A    between atoms: _393  and  _394
REMARK  155  A    between atoms: _393  and  _396
REMARK  156  A    between atoms: _396  and  _397
REMARK  157  A    between atoms: _400  and  _402
REMARK  158  A    between atoms: _402  and  _403
REMARK  159  A    between atoms: _402  and  _405
REMARK  160  A    between atoms: _405  and  _406
REMARK  161  A    between atoms: _409  and  _411
REMARK  162  A    between atoms: _411  and  _412
REMARK  163  A    between atoms: _411  and  _414
REMARK  164  A    between atoms: _414  and  _415
REMARK  165  A    between atoms: _420  and  _421
REMARK  166  A    between atoms: _423  and  _425
REMARK  167  A    between atoms: _425  and  _426
REMARK  168  A    between atoms: _425  and  _428
REMARK  169  A    between atoms: _428  and  _429
REMARK  170  A    between atoms: _432  and  _434
REMARK  171  A    between atoms: _434  and  _435
REMARK  172  A    between atoms: _434  and  _437
REMARK  173  A    between atoms: _437  and  _438
REMARK  174  A    between atoms: _438  and  _439
REMARK  175  A    between atoms: _444  and  _446
REMARK  176  A    between atoms: _446  and  _447
REMARK  177  A    between atoms: _446  and  _449
REMARK  178  A    between atoms: _449  and  _450
REMARK  179  A    between atoms: _450  and  _451
REMARK  180  A    between atoms: _451  and  _452
REMARK  181  A    between atoms: _461  and  _463
REMARK  182  A    between atoms: _463  and  _464
REMARK  183  A    between atoms: _463  and  _466
REMARK  184  A    between atoms: _466  and  _467
REMARK  185  A    between atoms: _472  and  _473
REMARK  186  A    between atoms: _475  and  _477
REMARK  187  A    between atoms: _477  and  _478
REMARK  188  A    between atoms: _480  and  _482
REMARK  189  A    between atoms: _482  and  _483
REMARK  190  A    between atoms: _482  and  _485
REMARK  191  A    between atoms: _485  and  _486
REMARK  192  A    between atoms: _491  and  _492
REMARK  193  A    between atoms: _494  and  _496
REMARK  194  A    between atoms: _496  and  _497
REMARK  195  A    between atoms: _496  and  _499
REMARK  196  A    between atoms: _499  and  _500
REMARK  197  A    between atoms: _500  and  _501
REMARK  198  A    between atoms: _504  and  _506
REMARK  199  A    between atoms: _506  and  _507
REMARK  200  A    between atoms: _506  and  _509
REMARK  201  A    between atoms: _509  and  _510
REMARK  202  A    between atoms: _516  and  _518
REMARK  203  A    between atoms: _518  and  _519
REMARK  204  A    between atoms: _522  and  _524
REMARK  205  A    between atoms: _524  and  _525
REMARK  206  A    between atoms: _524  and  _527
REMARK  207  A    between atoms: _527  and  _528
REMARK  208  A    between atoms: _533  and  _534
REMARK  209  A    between atoms: _536  and  _538
REMARK  210  A    between atoms: _538  and  _539
REMARK  211  A    between atoms: _538  and  _541
REMARK  212  A    between atoms: _541  and  _542
REMARK  213  A    between atoms: _547  and  _548
REMARK  214  A    between atoms: _550  and  _552
REMARK  215  A    between atoms: _552  and  _553
REMARK  216  A    between atoms: _552  and  _555
REMARK  217  A    between atoms: _555  and  _556
REMARK  218  A    between atoms: _559  and  _561
REMARK  219  A    between atoms: _561  and  _562
REMARK  220  A    between atoms: _561  and  _564
REMARK  221  A    between atoms: _564  and  _565
REMARK  222  A    between atoms: _575  and  _577
REMARK  223  A    between atoms: _577  and  _578
REMARK  224  A    between atoms: _581  and  _583
REMARK  225  A    between atoms: _583  and  _584
REMARK  226  A    between atoms: _587  and  _589
REMARK  227  A    between atoms: _589  and  _590
REMARK  228  A    between atoms: _589  and  _592
REMARK  229  A    between atoms: _592  and  _593
REMARK  230  A    between atoms: _593  and  _594
REMARK  231  A    between atoms: _599  and  _601
REMARK  232  A    between atoms: _601  and  _602
REMARK  233  A    between atoms: _601  and  _604
REMARK  234  A    between atoms: _604  and  _605
REMARK  235  A    between atoms: _608  and  _610
REMARK  236  A    between atoms: _610  and  _611
REMARK  237  A    between atoms: _610  and  _613
REMARK  238  A    between atoms: _613  and  _614
REMARK  239  A    between atoms: _617  and  _619
REMARK  240  A    between atoms: _619  and  _620
REMARK  241  A    between atoms: _619  and  _622
REMARK  242  A    between atoms: _622  and  _623
REMARK  243  A    between atoms: _623  and  _624
REMARK  244  A    between atoms: _624  and  _625
REMARK  245  A    between atoms: _634  and  _636
REMARK  246  A    between atoms: _636  and  _637
REMARK  247  A    between atoms: _636  and  _639
REMARK  248  A    between atoms: _639  and  _640
REMARK  249  A    between atoms: _640  and  _641
REMARK  250  A    between atoms: _641  and  _642
REMARK  251  A    between atoms: _651  and  _653
REMARK  252  A    between atoms: _653  and  _654
REMARK  253  A    between atoms: _653  and  _656
REMARK  254  A    between atoms: _656  and  _657
REMARK  255  A    between atoms: _657  and  _658
REMARK  256  A    between atoms: _658  and  _659
REMARK  257  A    between atoms: _659  and  _660
REMARK  258  A    between atoms: _664  and  _666
REMARK  259  A    between atoms: _666  and  _667
REMARK  260  A    between atoms: _666  and  _669
REMARK  261  A    between atoms: _669  and  _670
REMARK  262  A    between atoms: _680  and  _682
REMARK  263  A    between atoms: _682  and  _683
REMARK  264  A    between atoms: _682  and  _685
REMARK  265  A    between atoms: _685  and  _686
REMARK  266  A    between atoms: _686  and  _687
REMARK  267  A    between atoms: _690  and  _692
REMARK  268  A    between atoms: _692  and  _693
REMARK  269  A    between atoms: _692  and  _695
REMARK  270  A    between atoms: _695  and  _696
REMARK  271  A    between atoms: _696  and  _697
REMARK  272  A    between atoms: _702  and  _704
REMARK  273  A    between atoms: _704  and  _705
REMARK  274  A    between atoms: _708  and  _710
REMARK  275  A    between atoms: _710  and  _711
REMARK  276  A    between atoms: _713  and  _715
REMARK  277  A    between atoms: _715  and  _716
REMARK  278  A    between atoms: _719  and  _721
REMARK  279  A    between atoms: _721  and  _722
REMARK  280  A    between atoms: _725  and  _727
REMARK  281  A    between atoms: _727  and  _728
REMARK  282  A    between atoms: _727  and  _730
REMARK  283  A    between atoms: _730  and  _731
REMARK  284  A    between atoms: _731  and  _732
REMARK  285  A    between atoms: _735  and  _737
REMARK  286  A    between atoms: _737  and  _738
REMARK  287  A    between atoms: _737  and  _740
REMARK  288  A    between atoms: _740  and  _741
REMARK  289  A    between atoms: _746  and  _747
REMARK  290  A    between atoms: _749  and  _751
REMARK  291  A    between atoms: _751  and  _752
REMARK  292  A    between atoms: _751  and  _754
REMARK  293  A    between atoms: _754  and  _755
REMARK  294  A    between atoms: _760  and  _761
REMARK  295  A    between atoms: _763  and  _765
REMARK  296  A    between atoms: _765  and  _766
REMARK  297  A    between atoms: _765  and  _768
REMARK  298  A    between atoms: _768  and  _769
REMARK  299  A    between atoms: _769  and  _770
REMARK  300  A    between atoms: _770  and  _771
REMARK  301  A    between atoms: _780  and  _782
REMARK  302  A    between atoms: _782  and  _783
REMARK  303  A    between atoms: _786  and  _788
REMARK  304  A    between atoms: _788  and  _789
REMARK  305  A    between atoms: _788  and  _791
REMARK  306  A    between atoms: _791  and  _792
REMARK  307  A    between atoms: _797  and  _798
REMARK  308  A    between atoms: _800  and  _802
REMARK  309  A    between atoms: _802  and  _803
REMARK  310  A    between atoms: _802  and  _805
REMARK  311  A    between atoms: _805  and  _806
REMARK  312  A    between atoms: _809  and  _811
REMARK  313  A    between atoms: _811  and  _812
REMARK  314  A    between atoms: _811  and  _814
REMARK  315  A    between atoms: _814  and  _815
REMARK  316  A    between atoms: _815  and  _816
REMARK  317  A    between atoms: _819  and  _821
REMARK  318  A    between atoms: _821  and  _822
REMARK  319  A    between atoms: _821  and  _824
REMARK  320  A    between atoms: _826  and  _828
REMARK  321  A    between atoms: _828  and  _829
REMARK  322  A    between atoms: _828  and  _831
REMARK  323  A    between atoms: _834  and  _836
REMARK  324  A    between atoms: _836  and  _837
REMARK  325  A    between atoms: _836  and  _839
REMARK  326  A    between atoms: _839  and  _840
REMARK  327  A    between atoms: _840  and  _841
REMARK  328  A    between atoms: _844  and  _846
REMARK  329  A    between atoms: _846  and  _847
REMARK  330  A    between atoms: _846  and  _849
REMARK  331  A    between atoms: _849  and  _850
REMARK  332  A    between atoms: _860  and  _862
REMARK  333  A    between atoms: _862  and  _863
REMARK  334  A    between atoms: _862  and  _865
REMARK  335  A    between atoms: _865  and  _866
REMARK  336  A    between atoms: _869  and  _871
REMARK  337  A    between atoms: _871  and  _872
REMARK  338  A    between atoms: _871  and  _874
REMARK  339  A    between atoms: _874  and  _875
REMARK  340  A    between atoms: _875  and  _876
REMARK  341  A    between atoms: _876  and  _877
REMARK  342  A    between atoms: _886  and  _888
REMARK  343  A    between atoms: _888  and  _889
REMARK  344  A    between atoms: _888  and  _891
REMARK  345  A    between atoms: _891  and  _892
REMARK  346  A    between atoms: _897  and  _898
REMARK                            x       y       z     vdW  Elec       q    Type
REMARK                         _______ _______ _______ _____ _____    ______ ____
ROOT
ATOM      1  O   HOH     1      11.820 -12.348  11.523  0.00  0.00    +0.000 OA
ENDROOT
TORSDOF 0
REMARK  Name = ../refined-set-2016/3ery/3ery_pocket.pdb
REMARK  346 active torsions:
REMARK  status: ('A' for Active; 'I' for Inactive)
REMARK    1  A    between atoms: _1  and  _3
REMARK    2  A    between atoms: _3  and  _4
REMARK    3  A    between atoms: _3  and  _6
REMARK    4  A    between atoms: _6  and  _7
REMARK    5  A    between atoms: _7  and  _8
REMARK    6  A    between atoms: _10  and  _12
REMARK    7  A    between atoms: _12  and  _13
REMARK    8  A    between atoms: _12  and  _15
REMARK    9  A    between atoms: _15  and  _16
REMARK   10  A    between atoms: _16  and  _17
REMARK   11  A    between atoms: _17  and  _18
REMARK   12  A    between atoms: _27  and  _29
REMARK   13  A    between atoms: _29  and  _30
REMARK   14  A    between atoms: _29  and  _32
REMARK   15  A    between atoms: _32  and  _33
REMARK   16  A    between atoms: _38  and  _39
REMARK   17  A    between atoms: _41  and  _43
REMARK   18  A    between atoms: _43  and  _44
REMARK   19  A    between atoms: _43  and  _46
REMARK   20  A    between atoms: _46  and  _47
REMARK   21  A    between atoms: _52  and  _53
REMARK   22  A    between atoms: _55  and  _57
REMARK   23  A    between atoms: _57  and  _58
REMARK   24  A    between atoms: _57  and  _60
REMARK   25  A    between atoms: _60  and  _61
REMARK   26  A    between atoms: _61  and  _62
REMARK   27  A    between atoms: _65  and  _67
REMARK   28  A    between atoms: _67  and  _68
REMARK   29  A    between atoms: _67  and  _70
REMARK   30  A    between atoms: _70  and  _71
REMARK   31  A    between atoms: _76  and  _77
REMARK   32  A    between atoms: _79  and  _81
REMARK   33  A    between atoms: _81  and  _82
REMARK   34  A    between atoms: _81  and  _84
REMARK   35  A    between atoms: _84  and  _85
REMARK   36  A    between atoms: _87  and  _89
REMARK   37  A    between atoms: _89  and  _90
REMARK   38  A    between atoms: _89  and  _92
REMARK   39  A    between atoms: _95  and  _97
REMARK   40  A    between atoms: _97  and  _98
REMARK   41  A    between atoms: _100  and  _102
REMARK   42  A    between atoms: _102  and  _103
REMARK   43  A    between atoms: _102  and  _105
REMARK   44  A    between atoms: _105  and  _106
REMARK   45  A    between atoms: _112  and  _114
REMARK   46  A    between atoms: _114  and  _115
REMARK   47  A    between atoms: _114  and  _117
REMARK   48  A    between atoms: _120  and  _122
REMARK   49  A    between atoms: _122  and  _123
REMARK   50  A    between atoms: _122  and  _125
REMARK   51  A    between atoms: _125  and  _126
REMARK   52  A    between atoms: _132  and  _134
REMARK   53  A    between atoms: _134  and  _135
REMARK   54  A    between atoms: _134  and  _137
REMARK   55  A    between atoms: _137  and  _138
REMARK   56  A    between atoms: _143  and  _144
REMARK   57  A    between atoms: _146  and  _148
REMARK   58  A    between atoms: _148  and  _149
REMARK   59  A    between atoms: _148  and  _151
REMARK   60  A    between atoms: _151  and  _152
REMARK   61  A    between atoms: _152  and  _153
REMARK   62  A    between atoms: _156  and  _158
REMARK   63  A    between atoms: _158  and  _159
REMARK   64  A    between atoms: _158  and  _161
REMARK   65  A    between atoms: _161  and  _162
REMARK   66  A    between atoms: _162  and  _163
REMARK   67  A    between atoms: _166  and  _168
REMARK   68  A    between atoms: _168  and  _169
REMARK   69  A    between atoms: _168  and  _171
REMARK   70  A    between atoms: _171  and  _172
REMARK   71  A    between atoms: _177  and  _178
REMARK   72  A    between atoms: _180  and  _182
REMARK   73  A    between atoms: _182  and  _183
REMARK   74  A    between atoms: _182  and  _185
REMARK   75  A    between atoms: _185  and  _186
REMARK   76  A    between atoms: _196  and  _198
REMARK   77  A    between atoms: _198  and  _199
REMARK   78  A    between atoms: _198  and  _201
REMARK   79  A    between atoms: _201  and  _202
REMARK   80  A    between atoms: _202  and  _203
REMARK   81  A    between atoms: _206  and  _208
REMARK   82  A    between atoms: _208  and  _209
REMARK   83  A    between atoms: _208  and  _211
REMARK   84  A    between atoms: _211  and  _212
REMARK   85  A    between atoms: _212  and  _213
REMARK   86  A    between atoms: _213  and  _214
REMARK   87  A    between atoms: _223  and  _225
REMARK   88  A    between atoms: _225  and  _226
REMARK   89  A    between atoms: _225  and  _228
REMARK   90  A    between atoms: _228  and  _229
REMARK   91  A    between atoms: _232  and  _234
REMARK   92  A    between atoms: _234  and  _235
REMARK   93  A    between atoms: _234  and  _237
REMARK   94  A    between atoms: _237  and  _238
REMARK   95  A    between atoms: _241  and  _243
REMARK   96  A    between atoms: _243  and  _244
REMARK   97  A    between atoms: _243  and  _246
REMARK   98  A    between atoms: _246  and  _247
REMARK   99  A    between atoms: _247  and  _248
REMARK  100  A    between atoms: _253  and  _255
REMARK  101  A    between atoms: _255  and  _256
REMARK  102  A    between atoms: _255  and  _258
REMARK  103  A    between atoms: _261  and  _263
REMARK  104  A    between atoms: _263  and  _264
REMARK  105  A    between atoms: _267  and  _269
REMARK  106  A    between atoms: _269  and  _270
REMARK  107  A    between atoms: _269  and  _272
REMARK  108  A    between atoms: _272  and  _273
REMARK  109  A    between atoms: _273  and  _274
REMARK  110  A    between atoms: _274  and  _275
REMARK  111  A    between atoms: _275  and  _276
REMARK  112  A    between atoms: _280  and  _282
REMARK  113  A    between atoms: _282  and  _283
REMARK  114  A    between atoms: _285  and  _287
REMARK  115  A    between atoms: _287  and  _288
REMARK  116  A    between atoms: _287  and  _290
REMARK  117  A    between atoms: _290  and  _291
REMARK  118  A    between atoms: _291  and  _292
REMARK  119  A    between atoms: _297  and  _299
REMARK  120  A    between atoms: _299  and  _300
REMARK  121  A    between atoms: _299  and  _302
REMARK  122  A    between atoms: _302  and  _303
REMARK  123  A    between atoms: _303  and  _304
REMARK  124  A    between atoms: _309  and  _311
REMARK  125  A    between atoms: _311  and  _312
REMARK  126  A    between atoms: _311  and  _314
REMARK  127  A    between atoms: _314  and  _315
REMARK  128  A    between atoms: _325  and  _327
REMARK  129  A    between atoms: _327  and  _328
REMARK  130  A    between atoms: _327  and  _330
REMARK  131  A    between atoms: _330  and  _331
REMARK  132  A    between atoms: _337  and  _339
REMARK  133  A    between atoms: _339  and  _340
REMARK  134  A    between atoms: _339  and  _342
REMARK  135  A    between atoms: _345  and  _347
REMARK  136  A    between atoms: _347  and  _348
REMARK  137  A    between atoms: _347  and  _350
REMARK  138  A    between atoms: _350  and  _351
REMARK  139  A    between atoms: _356  and  _358
REMARK  140  A    between atoms: _358  and  _359
REMARK  141  A    between atoms: _358  and  _361
REMARK  142  A    between atoms: _361  and  _362
REMARK  143  A    between atoms: _365  and  _367
REMARK  144  A    between atoms: _367  and  _368
REMARK  145  A    between atoms: _367  and  _370
REMARK  146  A    between atoms: _370  and  _371
REMARK  147  A    between atoms: _371  and  _372
REMARK  148  A    between atoms: _372  and  _373
REMARK  149  A    between atoms: _382  and  _384
REMARK  150  A    between atoms: _384  and  _385
REMARK  151  A    between atoms: _384  and  _387
REMARK  152  A    between atoms: _387  and  _388
REMARK  153  A    between atoms: _391  and  _393
REMARK  154  A    between atoms: _393  and  _394
REMARK  155  A    between atoms: _393  and  _396
REMARK  156  A    between atoms: _396  and  _397
REMARK  157  A    between atoms: _400  and  _402
REMARK  158  A    between atoms: _402  and  _403
REMARK  159  A    between atoms: _402  and  _405
REMARK  160  A    between atoms: _405  and  _406
REMARK  161  A    between atoms: _409  and  _411
REMARK  162  A    between atoms: _411  and  _412
REMARK  163  A    between atoms: _411  and  _414
REMARK  164  A    between atoms: _414  and  _415
REMARK  165  A    between atoms: _420  and  _421
REMARK  166  A    between atoms: _423  and  _425
REMARK  167  A    between atoms: _425  and  _426
REMARK  168  A    between atoms: _425  and  _428
REMARK  169  A    between atoms: _428  and  _429
REMARK  170  A    between atoms: _432  and  _434
REMARK  171  A    between atoms: _434  and  _435
REMARK  172  A    between atoms: _434  and  _437
REMARK  173  A    between atoms: _437  and  _438
REMARK  174  A    between atoms: _438  and  _439
REMARK  175  A    between atoms: _444  and  _446
REMARK  176  A    between atoms: _446  and  _447
REMARK  177  A    between atoms: _446  and  _449
REMARK  178  A    between atoms: _449  and  _450
REMARK  179  A    between atoms: _450  and  _451
REMARK  180  A    between atoms: _451  and  _452
REMARK  181  A    between atoms: _461  and  _463
REMARK  182  A    between atoms: _463  and  _464
REMARK  183  A    between atoms: _463  and  _466
REMARK  184  A    between atoms: _466  and  _467
REMARK  185  A    between atoms: _472  and  _473
REMARK  186  A    between atoms: _475  and  _477
REMARK  187  A    between atoms: _477  and  _478
REMARK  188  A    between atoms: _480  and  _482
REMARK  189  A    between atoms: _482  and  _483
REMARK  190  A    between atoms: _482  and  _485
REMARK  191  A    between atoms: _485  and  _486
REMARK  192  A    between atoms: _491  and  _492
REMARK  193  A    between atoms: _494  and  _496
REMARK  194  A    between atoms: _496  and  _497
REMARK  195  A    between atoms: _496  and  _499
REMARK  196  A    between atoms: _499  and  _500
REMARK  197  A    between atoms: _500  and  _501
REMARK  198  A    between atoms: _504  and  _506
REMARK  199  A    between atoms: _506  and  _507
REMARK  200  A    between atoms: _506  and  _509
REMARK  201  A    between atoms: _509  and  _510
REMARK  202  A    between atoms: _516  and  _518
REMARK  203  A    between atoms: _518  and  _519
REMARK  204  A    between atoms: _522  and  _524
REMARK  205  A    between atoms: _524  and  _525
REMARK  206  A    between atoms: _524  and  _527
REMARK  207  A    between atoms: _527  and  _528
REMARK  208  A    between atoms: _533  and  _534
REMARK  209  A    between atoms: _536  and  _538
REMARK  210  A    between atoms: _538  and  _539
REMARK  211  A    between atoms: _538  and  _541
REMARK  212  A    between atoms: _541  and  _542
REMARK  213  A    between atoms: _547  and  _548
REMARK  214  A    between atoms: _550  and  _552
REMARK  215  A    between atoms: _552  and  _553
REMARK  216  A    between atoms: _552  and  _555
REMARK  217  A    between atoms: _555  and  _556
REMARK  218  A    between atoms: _559  and  _561
REMARK  219  A    between atoms: _561  and  _562
REMARK  220  A    between atoms: _561  and  _564
REMARK  221  A    between atoms: _564  and  _565
REMARK  222  A    between atoms: _575  and  _577
REMARK  223  A    between atoms: _577  and  _578
REMARK  224  A    between atoms: _581  and  _583
REMARK  225  A    between atoms: _583  and  _584
REMARK  226  A    between atoms: _587  and  _589
REMARK  227  A    between atoms: _589  and  _590
REMARK  228  A    between atoms: _589  and  _592
REMARK  229  A    between atoms: _592  and  _593
REMARK  230  A    between atoms: _593  and  _594
REMARK  231  A    between atoms: _599  and  _601
REMARK  232  A    between atoms: _601  and  _602
REMARK  233  A    between atoms: _601  and  _604
REMARK  234  A    between atoms: _604  and  _605
REMARK  235  A    between atoms: _608  and  _610
REMARK  236  A    between atoms: _610  and  _611
REMARK  237  A    between atoms: _610  and  _613
REMARK  238  A    between atoms: _613  and  _614
REMARK  239  A    between atoms: _617  and  _619
REMARK  240  A    between atoms: _619  and  _620
REMARK  241  A    between atoms: _619  and  _622
REMARK  242  A    between atoms: _622  and  _623
REMARK  243  A    between atoms: _623  and  _624
REMARK  244  A    between atoms: _624  and  _625
REMARK  245  A    between atoms: _634  and  _636
REMARK  246  A    between atoms: _636  and  _637
REMARK  247  A    between atoms: _636  and  _639
REMARK  248  A    between atoms: _639  and  _640
REMARK  249  A    between atoms: _640  and  _641
REMARK  250  A    between atoms: _641  and  _642
REMARK  251  A    between atoms: _651  and  _653
REMARK  252  A    between atoms: _653  and  _654
REMARK  253  A    between atoms: _653  and  _656
REMARK  254  A    between atoms: _656  and  _657
REMARK  255  A    between atoms: _657  and  _658
REMARK  256  A    between atoms: _658  and  _659
REMARK  257  A    between atoms: _659  and  _660
REMARK  258  A    between atoms: _664  and  _666
REMARK  259  A    between atoms: _666  and  _667
REMARK  260  A    between atoms: _666  and  _669
REMARK  261  A    between atoms: _669  and  _670
REMARK  262  A    between atoms: _680  and  _682
REMARK  263  A    between atoms: _682  and  _683
REMARK  264  A    between atoms: _682  and  _685
REMARK  265  A    between atoms: _685  and  _686
REMARK  266  A    between atoms: _686  and  _687
REMARK  267  A    between atoms: _690  and  _692
REMARK  268  A    between atoms: _692  and  _693
REMARK  269  A    between atoms: _692  and  _695
REMARK  270  A    between atoms: _695  and  _696
REMARK  271  A    between atoms: _696  and  _697
REMARK  272  A    between atoms: _702  and  _704
REMARK  273  A    between atoms: _704  and  _705
REMARK  274  A    between atoms: _708  and  _710
REMARK  275  A    between atoms: _710  and  _711
REMARK  276  A    between atoms: _713  and  _715
REMARK  277  A    between atoms: _715  and  _716
REMARK  278  A    between atoms: _719  and  _721
REMARK  279  A    between atoms: _721  and  _722
REMARK  280  A    between atoms: _725  and  _727
REMARK  281  A    between atoms: _727  and  _728
REMARK  282  A    between atoms: _727  and  _730
REMARK  283  A    between atoms: _730  and  _731
REMARK  284  A    between atoms: _731  and  _732
REMARK  285  A    between atoms: _735  and  _737
REMARK  286  A    between atoms: _737  and  _738
REMARK  287  A    between atoms: _737  and  _740
REMARK  288  A    between atoms: _740  and  _741
REMARK  289  A    between atoms: _746  and  _747
REMARK  290  A    between atoms: _749  and  _751
REMARK  291  A    between atoms: _751  and  _752
REMARK  292  A    between atoms: _751  and  _754
REMARK  293  A    between atoms: _754  and  _755
REMARK  294  A    between atoms: _760  and  _761
REMARK  295  A    between atoms: _763  and  _765
REMARK  296  A    between atoms: _765  and  _766
REMARK  297  A    between atoms: _765  and  _768
REMARK  298  A    between atoms: _768  and  _769
REMARK  299  A    between atoms: _769  and  _770
REMARK  300  A    between atoms: _770  and  _771
REMARK  301  A    between atoms: _780  and  _782
REMARK  302  A    between atoms: _782  and  _783
REMARK  303  A    between atoms: _786  and  _788
REMARK  304  A    between atoms: _788  and  _789
REMARK  305  A    between atoms: _788  and  _791
REMARK  306  A    between atoms: _791  and  _792
REMARK  307  A    between atoms: _797  and  _798
REMARK  308  A    between atoms: _800  and  _802
REMARK  309  A    between atoms: _802  and  _803
REMARK  310  A    between atoms: _802  and  _805
REMARK  311  A    between atoms: _805  and  _806
REMARK  312  A    between atoms: _809  and  _811
REMARK  313  A    between atoms: _811  and  _812
REMARK  314  A    between atoms: _811  and  _814
REMARK  315  A    between atoms: _814  and  _815
REMARK  316  A    between atoms: _815  and  _816
REMARK  317  A    between atoms: _819  and  _821
REMARK  318  A    between atoms: _821  and  _822
REMARK  319  A    between atoms: _821  and  _824
REMARK  320  A    between atoms: _826  and  _828
REMARK  321  A    between atoms: _828  and  _829
REMARK  322  A    between atoms: _828  and  _831
REMARK  323  A    between atoms: _834  and  _836
REMARK  324  A    between atoms: _836  and  _837
REMARK  325  A    between atoms: _836  and  _839
REMARK  326  A    between atoms: _839  and  _840
REMARK  327  A    between atoms: _840  and  _841
REMARK  328  A    between atoms: _844  and  _846
REMARK  329  A    between atoms: _846  and  _847
REMARK  330  A    between atoms: _846  and  _849
REMARK  331  A    between atoms: _849  and  _850
REMARK  332  A    between atoms: _860  and  _862
REMARK  333  A    between atoms: _862  and  _863
REMARK  334  A    between atoms: _862  and  _865
REMARK  335  A    between atoms: _865  and  _866
REMARK  336  A    between atoms: _869  and  _871
REMARK  337  A    between atoms: _871  and  _872
REMARK  338  A    between atoms: _871  and  _874
REMARK  339  A    between atoms: _874  and  _875
REMARK  340  A    between atoms: _875  and  _876
REMARK  341  A    between atoms: _876  and  _877
REMARK  342  A    between atoms: _886  and  _888
REMARK  343  A    between atoms: _888  and  _889
REMARK  344  A    between atoms: _888  and  _891
REMARK  345  A    between atoms: _891  and  _892
REMARK  346  A    between atoms: _897  and  _898
REMARK                            x       y       z     vdW  Elec       q    Type
REMARK                         _______ _______ _______ _____ _____    ______ ____
ROOT
ATOM      1  O   HOH     1       0.919 -18.608  -7.989  0.00  0.00    +0.000 OA
ENDROOT
TORSDOF 0
REMARK  Name = ../refined-set-2016/3ery/3ery_pocket.pdb
REMARK  346 active torsions:
REMARK  status: ('A' for Active; 'I' for Inactive)
REMARK    1  A    between atoms: _1  and  _3
REMARK    2  A    between atoms: _3  and  _4
REMARK    3  A    between atoms: _3  and  _6
REMARK    4  A    between atoms: _6  and  _7
REMARK    5  A    between atoms: _7  and  _8
REMARK    6  A    between atoms: _10  and  _12
REMARK    7  A    between atoms: _12  and  _13
REMARK    8  A    between atoms: _12  and  _15
REMARK    9  A    between atoms: _15  and  _16
REMARK   10  A    between atoms: _16  and  _17
REMARK   11  A    between atoms: _17  and  _18
REMARK   12  A    between atoms: _27  and  _29
REMARK   13  A    between atoms: _29  and  _30
REMARK   14  A    between atoms: _29  and  _32
REMARK   15  A    between atoms: _32  and  _33
REMARK   16  A    between atoms: _38  and  _39
REMARK   17  A    between atoms: _41  and  _43
REMARK   18  A    between atoms: _43  and  _44
REMARK   19  A    between atoms: _43  and  _46
REMARK   20  A    between atoms: _46  and  _47
REMARK   21  A    between atoms: _52  and  _53
REMARK   22  A    between atoms: _55  and  _57
REMARK   23  A    between atoms: _57  and  _58
REMARK   24  A    between atoms: _57  and  _60
REMARK   25  A    between atoms: _60  and  _61
REMARK   26  A    between atoms: _61  and  _62
REMARK   27  A    between atoms: _65  and  _67
REMARK   28  A    between atoms: _67  and  _68
REMARK   29  A    between atoms: _67  and  _70
REMARK   30  A    between atoms: _70  and  _71
REMARK   31  A    between atoms: _76  and  _77
REMARK   32  A    between atoms: _79  and  _81
REMARK   33  A    between atoms: _81  and  _82
REMARK   34  A    between atoms: _81  and  _84
REMARK   35  A    between atoms: _84  and  _85
REMARK   36  A    between atoms: _87  and  _89
REMARK   37  A    between atoms: _89  and  _90
REMARK   38  A    between atoms: _89  and  _92
REMARK   39  A    between atoms: _95  and  _97
REMARK   40  A    between atoms: _97  and  _98
REMARK   41  A    between atoms: _100  and  _102
REMARK   42  A    between atoms: _102  and  _103
REMARK   43  A    between atoms: _102  and  _105
REMARK   44  A    between atoms: _105  and  _106
REMARK   45  A    between atoms: _112  and  _114
REMARK   46  A    between atoms: _114  and  _115
REMARK   47  A    between atoms: _114  and  _117
REMARK   48  A    between atoms: _120  and  _122
REMARK   49  A    between atoms: _122  and  _123
REMARK   50  A    between atoms: _122  and  _125
REMARK   51  A    between atoms: _125  and  _126
REMARK   52  A    between atoms: _132  and  _134
REMARK   53  A    between atoms: _134  and  _135
REMARK   54  A    between atoms: _134  and  _137
REMARK   55  A    between atoms: _137  and  _138
REMARK   56  A    between atoms: _143  and  _144
REMARK   57  A    between atoms: _146  and  _148
REMARK   58  A    between atoms: _148  and  _149
REMARK   59  A    between atoms: _148  and  _151
REMARK   60  A    between atoms: _151  and  _152
REMARK   61  A    between atoms: _152  and  _153
REMARK   62  A    between atoms: _156  and  _158
REMARK   63  A    between atoms: _158  and  _159
REMARK   64  A    between atoms: _158  and  _161
REMARK   65  A    between atoms: _161  and  _162
REMARK   66  A    between atoms: _162  and  _163
REMARK   67  A    between atoms: _166  and  _168
REMARK   68  A    between atoms: _168  and  _169
REMARK   69  A    between atoms: _168  and  _171
REMARK   70  A    between atoms: _171  and  _172
REMARK   71  A    between atoms: _177  and  _178
REMARK   72  A    between atoms: _180  and  _182
REMARK   73  A    between atoms: _182  and  _183
REMARK   74  A    between atoms: _182  and  _185
REMARK   75  A    between atoms: _185  and  _186
REMARK   76  A    between atoms: _196  and  _198
REMARK   77  A    between atoms: _198  and  _199
REMARK   78  A    between atoms: _198  and  _201
REMARK   79  A    between atoms: _201  and  _202
REMARK   80  A    between atoms: _202  and  _203
REMARK   81  A    between atoms: _206  and  _208
REMARK   82  A    between atoms: _208  and  _209
REMARK   83  A    between atoms: _208  and  _211
REMARK   84  A    between atoms: _211  and  _212
REMARK   85  A    between atoms: _212  and  _213
REMARK   86  A    between atoms: _213  and  _214
REMARK   87  A    between atoms: _223  and  _225
REMARK   88  A    between atoms: _225  and  _226
REMARK   89  A    between atoms: _225  and  _228
REMARK   90  A    between atoms: _228  and  _229
REMARK   91  A    between atoms: _232  and  _234
REMARK   92  A    between atoms: _234  and  _235
REMARK   93  A    between atoms: _234  and  _237
REMARK   94  A    between atoms: _237  and  _238
REMARK   95  A    between atoms: _241  and  _243
REMARK   96  A    between atoms: _243  and  _244
REMARK   97  A    between atoms: _243  and  _246
REMARK   98  A    between atoms: _246  and  _247
REMARK   99  A    between atoms: _247  and  _248
REMARK  100  A    between atoms: _253  and  _255
REMARK  101  A    between atoms: _255  and  _256
REMARK  102  A    between atoms: _255  and  _258
REMARK  103  A    between atoms: _261  and  _263
REMARK  104  A    between atoms: _263  and  _264
REMARK  105  A    between atoms: _267  and  _269
REMARK  106  A    between atoms: _269  and  _270
REMARK  107  A    between atoms: _269  and  _272
REMARK  108  A    between atoms: _272  and  _273
REMARK  109  A    between atoms: _273  and  _274
REMARK  110  A    between atoms: _274  and  _275
REMARK  111  A    between atoms: _275  and  _276
REMARK  112  A    between atoms: _280  and  _282
REMARK  113  A    between atoms: _282  and  _283
REMARK  114  A    between atoms: _285  and  _287
REMARK  115  A    between atoms: _287  and  _288
REMARK  116  A    between atoms: _287  and  _290
REMARK  117  A    between atoms: _290  and  _291
REMARK  118  A    between atoms: _291  and  _292
REMARK  119  A    between atoms: _297  and  _299
REMARK  120  A    between atoms: _299  and  _300
REMARK  121  A    between atoms: _299  and  _302
REMARK  122  A    between atoms: _302  and  _303
REMARK  123  A    between atoms: _303  and  _304
REMARK  124  A    between atoms: _309  and  _311
REMARK  125  A    between atoms: _311  and  _312
REMARK  126  A    between atoms: _311  and  _314
REMARK  127  A    between atoms: _314  and  _315
REMARK  128  A    between atoms: _325  and  _327
REMARK  129  A    between atoms: _327  and  _328
REMARK  130  A    between atoms: _327  and  _330
REMARK  131  A    between atoms: _330  and  _331
REMARK  132  A    between atoms: _337  and  _339
REMARK  133  A    between atoms: _339  and  _340
REMARK  134  A    between atoms: _339  and  _342
REMARK  135  A    between atoms: _345  and  _347
REMARK  136  A    between atoms: _347  and  _348
REMARK  137  A    between atoms: _347  and  _350
REMARK  138  A    between atoms: _350  and  _351
REMARK  139  A    between atoms: _356  and  _358
REMARK  140  A    between atoms: _358  and  _359
REMARK  141  A    between atoms: _358  and  _361
REMARK  142  A    between atoms: _361  and  _362
REMARK  143  A    between atoms: _365  and  _367
REMARK  144  A    between atoms: _367  and  _368
REMARK  145  A    between atoms: _367  and  _370
REMARK  146  A    between atoms: _370  and  _371
REMARK  147  A    between atoms: _371  and  _372
REMARK  148  A    between atoms: _372  and  _373
REMARK  149  A    between atoms: _382  and  _384
REMARK  150  A    between atoms: _384  and  _385
REMARK  151  A    between atoms: _384  and  _387
REMARK  152  A    between atoms: _387  and  _388
REMARK  153  A    between atoms: _391  and  _393
REMARK  154  A    between atoms: _393  and  _394
REMARK  155  A    between atoms: _393  and  _396
REMARK  156  A    between atoms: _396  and  _397
REMARK  157  A    between atoms: _400  and  _402
REMARK  158  A    between atoms: _402  and  _403
REMARK  159  A    between atoms: _402  and  _405
REMARK  160  A    between atoms: _405  and  _406
REMARK  161  A    between atoms: _409  and  _411
REMARK  162  A    between atoms: _411  and  _412
REMARK  163  A    between atoms: _411  and  _414
REMARK  164  A    between atoms: _414  and  _415
REMARK  165  A    between atoms: _420  and  _421
REMARK  166  A    between atoms: _423  and  _425
REMARK  167  A    between atoms: _425  and  _426
REMARK  168  A    between atoms: _425  and  _428
REMARK  169  A    between atoms: _428  and  _429
REMARK  170  A    between atoms: _432  and  _434
REMARK  171  A    between atoms: _434  and  _435
REMARK  172  A    between atoms: _434  and  _437
REMARK  173  A    between atoms: _437  and  _438
REMARK  174  A    between atoms: _438  and  _439
REMARK  175  A    between atoms: _444  and  _446
REMARK  176  A    between atoms: _446  and  _447
REMARK  177  A    between atoms: _446  and  _449
REMARK  178  A    between atoms: _449  and  _450
REMARK  179  A    between atoms: _450  and  _451
REMARK  180  A    between atoms: _451  and  _452
REMARK  181  A    between atoms: _461  and  _463
REMARK  182  A    between atoms: _463  and  _464
REMARK  183  A    between atoms: _463  and  _466
REMARK  184  A    between atoms: _466  and  _467
REMARK  185  A    between atoms: _472  and  _473
REMARK  186  A    between atoms: _475  and  _477
REMARK  187  A    between atoms: _477  and  _478
REMARK  188  A    between atoms: _480  and  _482
REMARK  189  A    between atoms: _482  and  _483
REMARK  190  A    between atoms: _482  and  _485
REMARK  191  A    between atoms: _485  and  _486
REMARK  192  A    between atoms: _491  and  _492
REMARK  193  A    between atoms: _494  and  _496
REMARK  194  A    between atoms: _496  and  _497
REMARK  195  A    between atoms: _496  and  _499
REMARK  196  A    between atoms: _499  and  _500
REMARK  197  A    between atoms: _500  and  _501
REMARK  198  A    between atoms: _504  and  _506
REMARK  199  A    between atoms: _506  and  _507
REMARK  200  A    between atoms: _506  and  _509
REMARK  201  A    between atoms: _509  and  _510
REMARK  202  A    between atoms: _516  and  _518
REMARK  203  A    between atoms: _518  and  _519
REMARK  204  A    between atoms: _522  and  _524
REMARK  205  A    between atoms: _524  and  _525
REMARK  206  A    between atoms: _524  and  _527
REMARK  207  A    between atoms: _527  and  _528
REMARK  208  A    between atoms: _533  and  _534
REMARK  209  A    between atoms: _536  and  _538
REMARK  210  A    between atoms: _538  and  _539
REMARK  211  A    between atoms: _538  and  _541
REMARK  212  A    between atoms: _541  and  _542
REMARK  213  A    between atoms: _547  and  _548
REMARK  214  A    between atoms: _550  and  _552
REMARK  215  A    between atoms: _552  and  _553
REMARK  216  A    between atoms: _552  and  _555
REMARK  217  A    between atoms: _555  and  _556
REMARK  218  A    between atoms: _559  and  _561
REMARK  219  A    between atoms: _561  and  _562
REMARK  220  A    between atoms: _561  and  _564
REMARK  221  A    between atoms: _564  and  _565
REMARK  222  A    between atoms: _575  and  _577
REMARK  223  A    between atoms: _577  and  _578
REMARK  224  A    between atoms: _581  and  _583
REMARK  225  A    between atoms: _583  and  _584
REMARK  226  A    between atoms: _587  and  _589
REMARK  227  A    between atoms: _589  and  _590
REMARK  228  A    between atoms: _589  and  _592
REMARK  229  A    between atoms: _592  and  _593
REMARK  230  A    between atoms: _593  and  _594
REMARK  231  A    between atoms: _599  and  _601
REMARK  232  A    between atoms: _601  and  _602
REMARK  233  A    between atoms: _601  and  _604
REMARK  234  A    between atoms: _604  and  _605
REMARK  235  A    between atoms: _608  and  _610
REMARK  236  A    between atoms: _610  and  _611
REMARK  237  A    between atoms: _610  and  _613
REMARK  238  A    between atoms: _613  and  _614
REMARK  239  A    between atoms: _617  and  _619
REMARK  240  A    between atoms: _619  and  _620
REMARK  241  A    between atoms: _619  and  _622
REMARK  242  A    between atoms: _622  and  _623
REMARK  243  A    between atoms: _623  and  _624
REMARK  244  A    between atoms: _624  and  _625
REMARK  245  A    between atoms: _634  and  _636
REMARK  246  A    between atoms: _636  and  _637
REMARK  247  A    between atoms: _636  and  _639
REMARK  248  A    between atoms: _639  and  _640
REMARK  249  A    between atoms: _640  and  _641
REMARK  250  A    between atoms: _641  and  _642
REMARK  251  A    between atoms: _651  and  _653
REMARK  252  A    between atoms: _653  and  _654
REMARK  253  A    between atoms: _653  and  _656
REMARK  254  A    between atoms: _656  and  _657
REMARK  255  A    between atoms: _657  and  _658
REMARK  256  A    between atoms: _658  and  _659
REMARK  257  A    between atoms: _659  and  _660
REMARK  258  A    between atoms: _664  and  _666
REMARK  259  A    between atoms: _666  and  _667
REMARK  260  A    between atoms: _666  and  _669
REMARK  261  A    between atoms: _669  and  _670
REMARK  262  A    between atoms: _680  and  _682
REMARK  263  A    between atoms: _682  and  _683
REMARK  264  A    between atoms: _682  and  _685
REMARK  265  A    between atoms: _685  and  _686
REMARK  266  A    between atoms: _686  and  _687
REMARK  267  A    between atoms: _690  and  _692
REMARK  268  A    between atoms: _692  and  _693
REMARK  269  A    between atoms: _692  and  _695
REMARK  270  A    between atoms: _695  and  _696
REMARK  271  A    between atoms: _696  and  _697
REMARK  272  A    between atoms: _702  and  _704
REMARK  273  A    between atoms: _704  and  _705
REMARK  274  A    between atoms: _708  and  _710
REMARK  275  A    between atoms: _710  and  _711
REMARK  276  A    between atoms: _713  and  _715
REMARK  277  A    between atoms: _715  and  _716
REMARK  278  A    between atoms: _719  and  _721
REMARK  279  A    between atoms: _721  and  _722
REMARK  280  A    between atoms: _725  and  _727
REMARK  281  A    between atoms: _727  and  _728
REMARK  282  A    between atoms: _727  and  _730
REMARK  283  A    between atoms: _730  and  _731
REMARK  284  A    between atoms: _731  and  _732
REMARK  285  A    between atoms: _735  and  _737
REMARK  286  A    between atoms: _737  and  _738
REMARK  287  A    between atoms: _737  and  _740
REMARK  288  A    between atoms: _740  and  _741
REMARK  289  A    between atoms: _746  and  _747
REMARK  290  A    between atoms: _749  and  _751
REMARK  291  A    between atoms: _751  and  _752
REMARK  292  A    between atoms: _751  and  _754
REMARK  293  A    between atoms: _754  and  _755
REMARK  294  A    between atoms: _760  and  _761
REMARK  295  A    between atoms: _763  and  _765
REMARK  296  A    between atoms: _765  and  _766
REMARK  297  A    between atoms: _765  and  _768
REMARK  298  A    between atoms: _768  and  _769
REMARK  299  A    between atoms: _769  and  _770
REMARK  300  A    between atoms: _770  and  _771
REMARK  301  A    between atoms: _780  and  _782
REMARK  302  A    between atoms: _782  and  _783
REMARK  303  A    between atoms: _786  and  _788
REMARK  304  A    between atoms: _788  and  _789
REMARK  305  A    between atoms: _788  and  _791
REMARK  306  A    between atoms: _791  and  _792
REMARK  307  A    between atoms: _797  and  _798
REMARK  308  A    between atoms: _800  and  _802
REMARK  309  A    between atoms: _802  and  _803
REMARK  310  A    between atoms: _802  and  _805
REMARK  311  A    between atoms: _805  and  _806
REMARK  312  A    between atoms: _809  and  _811
REMARK  313  A    between atoms: _811  and  _812
REMARK  314  A    between atoms: _811  and  _814
REMARK  315  A    between atoms: _814  and  _815
REMARK  316  A    between atoms: _815  and  _816
REMARK  317  A    between atoms: _819  and  _821
REMARK  318  A    between atoms: _821  and  _822
REMARK  319  A    between atoms: _821  and  _824
REMARK  320  A    between atoms: _826  and  _828
REMARK  321  A    between atoms: _828  and  _829
REMARK  322  A    between atoms: _828  and  _831
REMARK  323  A    between atoms: _834  and  _836
REMARK  324  A    between atoms: _836  and  _837
REMARK  325  A    between atoms: _836  and  _839
REMARK  326  A    between atoms: _839  and  _840
REMARK  327  A    between atoms: _840  and  _841
REMARK  328  A    between atoms: _844  and  _846
REMARK  329  A    between atoms: _846  and  _847
REMARK  330  A    between atoms: _846  and  _849
REMARK  331  A    between atoms: _849  and  _850
REMARK  332  A    between atoms: _860  and  _862
REMARK  333  A    between atoms: _862  and  _863
REMARK  334  A    between atoms: _862  and  _865
REMARK  335  A    between atoms: _865  and  _866
REMARK  336  A    between atoms: _869  and  _871
REMARK  337  A    between atoms: _871  and  _872
REMARK  338  A    between atoms: _871  and  _874
REMARK  339  A    between atoms: _874  and  _875
REMARK  340  A    between atoms: _875  and  _876
REMARK  341  A    between atoms: _876  and  _877
REMARK  342  A    between atoms: _886  and  _888
REMARK  343  A    between atoms: _888  and  _889
REMARK  344  A    between atoms: _888  and  _891
REMARK  345  A    between atoms: _891  and  _892
REMARK  346  A    between atoms: _897  and  _898
REMARK                            x       y       z     vdW  Elec       q    Type
REMARK                         _______ _______ _______ _____ _____    ______ ____
ROOT
ATOM      1  O   HOH     1       6.241 -20.002  10.500  0.00  0.00    +0.000 OA
ENDROOT
TORSDOF 0
REMARK  Name = ../refined-set-2016/3ery/3ery_pocket.pdb
REMARK  346 active torsions:
REMARK  status: ('A' for Active; 'I' for Inactive)
REMARK    1  A    between atoms: _1  and  _3
REMARK    2  A    between atoms: _3  and  _4
REMARK    3  A    between atoms: _3  and  _6
REMARK    4  A    between atoms: _6  and  _7
REMARK    5  A    between atoms: _7  and  _8
REMARK    6  A    between atoms: _10  and  _12
REMARK    7  A    between atoms: _12  and  _13
REMARK    8  A    between atoms: _12  and  _15
REMARK    9  A    between atoms: _15  and  _16
REMARK   10  A    between atoms: _16  and  _17
REMARK   11  A    between atoms: _17  and  _18
REMARK   12  A    between atoms: _27  and  _29
REMARK   13  A    between atoms: _29  and  _30
REMARK   14  A    between atoms: _29  and  _32
REMARK   15  A    between atoms: _32  and  _33
REMARK   16  A    between atoms: _38  and  _39
REMARK   17  A    between atoms: _41  and  _43
REMARK   18  A    between atoms: _43  and  _44
REMARK   19  A    between atoms: _43  and  _46
REMARK   20  A    between atoms: _46  and  _47
REMARK   21  A    between atoms: _52  and  _53
REMARK   22  A    between atoms: _55  and  _57
REMARK   23  A    between atoms: _57  and  _58
REMARK   24  A    between atoms: _57  and  _60
REMARK   25  A    between atoms: _60  and  _61
REMARK   26  A    between atoms: _61  and  _62
REMARK   27  A    between atoms: _65  and  _67
REMARK   28  A    between atoms: _67  and  _68
REMARK   29  A    between atoms: _67  and  _70
REMARK   30  A    between atoms: _70  and  _71
REMARK   31  A    between atoms: _76  and  _77
REMARK   32  A    between atoms: _79  and  _81
REMARK   33  A    between atoms: _81  and  _82
REMARK   34  A    between atoms: _81  and  _84
REMARK   35  A    between atoms: _84  and  _85
REMARK   36  A    between atoms: _87  and  _89
REMARK   37  A    between atoms: _89  and  _90
REMARK   38  A    between atoms: _89  and  _92
REMARK   39  A    between atoms: _95  and  _97
REMARK   40  A    between atoms: _97  and  _98
REMARK   41  A    between atoms: _100  and  _102
REMARK   42  A    between atoms: _102  and  _103
REMARK   43  A    between atoms: _102  and  _105
REMARK   44  A    between atoms: _105  and  _106
REMARK   45  A    between atoms: _112  and  _114
REMARK   46  A    between atoms: _114  and  _115
REMARK   47  A    between atoms: _114  and  _117
REMARK   48  A    between atoms: _120  and  _122
REMARK   49  A    between atoms: _122  and  _123
REMARK   50  A    between atoms: _122  and  _125
REMARK   51  A    between atoms: _125  and  _126
REMARK   52  A    between atoms: _132  and  _134
REMARK   53  A    between atoms: _134  and  _135
REMARK   54  A    between atoms: _134  and  _137
REMARK   55  A    between atoms: _137  and  _138
REMARK   56  A    between atoms: _143  and  _144
REMARK   57  A    between atoms: _146  and  _148
REMARK   58  A    between atoms: _148  and  _149
REMARK   59  A    between atoms: _148  and  _151
REMARK   60  A    between atoms: _151  and  _152
REMARK   61  A    between atoms: _152  and  _153
REMARK   62  A    between atoms: _156  and  _158
REMARK   63  A    between atoms: _158  and  _159
REMARK   64  A    between atoms: _158  and  _161
REMARK   65  A    between atoms: _161  and  _162
REMARK   66  A    between atoms: _162  and  _163
REMARK   67  A    between atoms: _166  and  _168
REMARK   68  A    between atoms: _168  and  _169
REMARK   69  A    between atoms: _168  and  _171
REMARK   70  A    between atoms: _171  and  _172
REMARK   71  A    between atoms: _177  and  _178
REMARK   72  A    between atoms: _180  and  _182
REMARK   73  A    between atoms: _182  and  _183
REMARK   74  A    between atoms: _182  and  _185
REMARK   75  A    between atoms: _185  and  _186
REMARK   76  A    between atoms: _196  and  _198
REMARK   77  A    between atoms: _198  and  _199
REMARK   78  A    between atoms: _198  and  _201
REMARK   79  A    between atoms: _201  and  _202
REMARK   80  A    between atoms: _202  and  _203
REMARK   81  A    between atoms: _206  and  _208
REMARK   82  A    between atoms: _208  and  _209
REMARK   83  A    between atoms: _208  and  _211
REMARK   84  A    between atoms: _211  and  _212
REMARK   85  A    between atoms: _212  and  _213
REMARK   86  A    between atoms: _213  and  _214
REMARK   87  A    between atoms: _223  and  _225
REMARK   88  A    between atoms: _225  and  _226
REMARK   89  A    between atoms: _225  and  _228
REMARK   90  A    between atoms: _228  and  _229
REMARK   91  A    between atoms: _232  and  _234
REMARK   92  A    between atoms: _234  and  _235
REMARK   93  A    between atoms: _234  and  _237
REMARK   94  A    between atoms: _237  and  _238
REMARK   95  A    between atoms: _241  and  _243
REMARK   96  A    between atoms: _243  and  _244
REMARK   97  A    between atoms: _243  and  _246
REMARK   98  A    between atoms: _246  and  _247
REMARK   99  A    between atoms: _247  and  _248
REMARK  100  A    between atoms: _253  and  _255
REMARK  101  A    between atoms: _255  and  _256
REMARK  102  A    between atoms: _255  and  _258
REMARK  103  A    between atoms: _261  and  _263
REMARK  104  A    between atoms: _263  and  _264
REMARK  105  A    between atoms: _267  and  _269
REMARK  106  A    between atoms: _269  and  _270
REMARK  107  A    between atoms: _269  and  _272
REMARK  108  A    between atoms: _272  and  _273
REMARK  109  A    between atoms: _273  and  _274
REMARK  110  A    between atoms: _274  and  _275
REMARK  111  A    between atoms: _275  and  _276
REMARK  112  A    between atoms: _280  and  _282
REMARK  113  A    between atoms: _282  and  _283
REMARK  114  A    between atoms: _285  and  _287
REMARK  115  A    between atoms: _287  and  _288
REMARK  116  A    between atoms: _287  and  _290
REMARK  117  A    between atoms: _290  and  _291
REMARK  118  A    between atoms: _291  and  _292
REMARK  119  A    between atoms: _297  and  _299
REMARK  120  A    between atoms: _299  and  _300
REMARK  121  A    between atoms: _299  and  _302
REMARK  122  A    between atoms: _302  and  _303
REMARK  123  A    between atoms: _303  and  _304
REMARK  124  A    between atoms: _309  and  _311
REMARK  125  A    between atoms: _311  and  _312
REMARK  126  A    between atoms: _311  and  _314
REMARK  127  A    between atoms: _314  and  _315
REMARK  128  A    between atoms: _325  and  _327
REMARK  129  A    between atoms: _327  and  _328
REMARK  130  A    between atoms: _327  and  _330
REMARK  131  A    between atoms: _330  and  _331
REMARK  132  A    between atoms: _337  and  _339
REMARK  133  A    between atoms: _339  and  _340
REMARK  134  A    between atoms: _339  and  _342
REMARK  135  A    between atoms: _345  and  _347
REMARK  136  A    between atoms: _347  and  _348
REMARK  137  A    between atoms: _347  and  _350
REMARK  138  A    between atoms: _350  and  _351
REMARK  139  A    between atoms: _356  and  _358
REMARK  140  A    between atoms: _358  and  _359
REMARK  141  A    between atoms: _358  and  _361
REMARK  142  A    between atoms: _361  and  _362
REMARK  143  A    between atoms: _365  and  _367
REMARK  144  A    between atoms: _367  and  _368
REMARK  145  A    between atoms: _367  and  _370
REMARK  146  A    between atoms: _370  and  _371
REMARK  147  A    between atoms: _371  and  _372
REMARK  148  A    between atoms: _372  and  _373
REMARK  149  A    between atoms: _382  and  _384
REMARK  150  A    between atoms: _384  and  _385
REMARK  151  A    between atoms: _384  and  _387
REMARK  152  A    between atoms: _387  and  _388
REMARK  153  A    between atoms: _391  and  _393
REMARK  154  A    between atoms: _393  and  _394
REMARK  155  A    between atoms: _393  and  _396
REMARK  156  A    between atoms: _396  and  _397
REMARK  157  A    between atoms: _400  and  _402
REMARK  158  A    between atoms: _402  and  _403
REMARK  159  A    between atoms: _402  and  _405
REMARK  160  A    between atoms: _405  and  _406
REMARK  161  A    between atoms: _409  and  _411
REMARK  162  A    between atoms: _411  and  _412
REMARK  163  A    between atoms: _411  and  _414
REMARK  164  A    between atoms: _414  and  _415
REMARK  165  A    between atoms: _420  and  _421
REMARK  166  A    between atoms: _423  and  _425
REMARK  167  A    between atoms: _425  and  _426
REMARK  168  A    between atoms: _425  and  _428
REMARK  169  A    between atoms: _428  and  _429
REMARK  170  A    between atoms: _432  and  _434
REMARK  171  A    between atoms: _434  and  _435
REMARK  172  A    between atoms: _434  and  _437
REMARK  173  A    between atoms: _437  and  _438
REMARK  174  A    between atoms: _438  and  _439
REMARK  175  A    between atoms: _444  and  _446
REMARK  176  A    between atoms: _446  and  _447
REMARK  177  A    between atoms: _446  and  _449
REMARK  178  A    between atoms: _449  and  _450
REMARK  179  A    between atoms: _450  and  _451
REMARK  180  A    between atoms: _451  and  _452
REMARK  181  A    between atoms: _461  and  _463
REMARK  182  A    between atoms: _463  and  _464
REMARK  183  A    between atoms: _463  and  _466
REMARK  184  A    between atoms: _466  and  _467
REMARK  185  A    between atoms: _472  and  _473
REMARK  186  A    between atoms: _475  and  _477
REMARK  187  A    between atoms: _477  and  _478
REMARK  188  A    between atoms: _480  and  _482
REMARK  189  A    between atoms: _482  and  _483
REMARK  190  A    between atoms: _482  and  _485
REMARK  191  A    between atoms: _485  and  _486
REMARK  192  A    between atoms: _491  and  _492
REMARK  193  A    between atoms: _494  and  _496
REMARK  194  A    between atoms: _496  and  _497
REMARK  195  A    between atoms: _496  and  _499
REMARK  196  A    between atoms: _499  and  _500
REMARK  197  A    between atoms: _500  and  _501
REMARK  198  A    between atoms: _504  and  _506
REMARK  199  A    between atoms: _506  and  _507
REMARK  200  A    between atoms: _506  and  _509
REMARK  201  A    between atoms: _509  and  _510
REMARK  202  A    between atoms: _516  and  _518
REMARK  203  A    between atoms: _518  and  _519
REMARK  204  A    between atoms: _522  and  _524
REMARK  205  A    between atoms: _524  and  _525
REMARK  206  A    between atoms: _524  and  _527
REMARK  207  A    between atoms: _527  and  _528
REMARK  208  A    between atoms: _533  and  _534
REMARK  209  A    between atoms: _536  and  _538
REMARK  210  A    between atoms: _538  and  _539
REMARK  211  A    between atoms: _538  and  _541
REMARK  212  A    between atoms: _541  and  _542
REMARK  213  A    between atoms: _547  and  _548
REMARK  214  A    between atoms: _550  and  _552
REMARK  215  A    between atoms: _552  and  _553
REMARK  216  A    between atoms: _552  and  _555
REMARK  217  A    between atoms: _555  and  _556
REMARK  218  A    between atoms: _559  and  _561
REMARK  219  A    between atoms: _561  and  _562
REMARK  220  A    between atoms: _561  and  _564
REMARK  221  A    between atoms: _564  and  _565
REMARK  222  A    between atoms: _575  and  _577
REMARK  223  A    between atoms: _577  and  _578
REMARK  224  A    between atoms: _581  and  _583
REMARK  225  A    between atoms: _583  and  _584
REMARK  226  A    between atoms: _587  and  _589
REMARK  227  A    between atoms: _589  and  _590
REMARK  228  A    between atoms: _589  and  _592
REMARK  229  A    between atoms: _592  and  _593
REMARK  230  A    between atoms: _593  and  _594
REMARK  231  A    between atoms: _599  and  _601
REMARK  232  A    between atoms: _601  and  _602
REMARK  233  A    between atoms: _601  and  _604
REMARK  234  A    between atoms: _604  and  _605
REMARK  235  A    between atoms: _608  and  _610
REMARK  236  A    between atoms: _610  and  _611
REMARK  237  A    between atoms: _610  and  _613
REMARK  238  A    between atoms: _613  and  _614
REMARK  239  A    between atoms: _617  and  _619
REMARK  240  A    between atoms: _619  and  _620
REMARK  241  A    between atoms: _619  and  _622
REMARK  242  A    between atoms: _622  and  _623
REMARK  243  A    between atoms: _623  and  _624
REMARK  244  A    between atoms: _624  and  _625
REMARK  245  A    between atoms: _634  and  _636
REMARK  246  A    between atoms: _636  and  _637
REMARK  247  A    between atoms: _636  and  _639
REMARK  248  A    between atoms: _639  and  _640
REMARK  249  A    between atoms: _640  and  _641
REMARK  250  A    between atoms: _641  and  _642
REMARK  251  A    between atoms: _651  and  _653
REMARK  252  A    between atoms: _653  and  _654
REMARK  253  A    between atoms: _653  and  _656
REMARK  254  A    between atoms: _656  and  _657
REMARK  255  A    between atoms: _657  and  _658
REMARK  256  A    between atoms: _658  and  _659
REMARK  257  A    between atoms: _659  and  _660
REMARK  258  A    between atoms: _664  and  _666
REMARK  259  A    between atoms: _666  and  _667
REMARK  260  A    between atoms: _666  and  _669
REMARK  261  A    between atoms: _669  and  _670
REMARK  262  A    between atoms: _680  and  _682
REMARK  263  A    between atoms: _682  and  _683
REMARK  264  A    between atoms: _682  and  _685
REMARK  265  A    between atoms: _685  and  _686
REMARK  266  A    between atoms: _686  and  _687
REMARK  267  A    between atoms: _690  and  _692
REMARK  268  A    between atoms: _692  and  _693
REMARK  269  A    between atoms: _692  and  _695
REMARK  270  A    between atoms: _695  and  _696
REMARK  271  A    between atoms: _696  and  _697
REMARK  272  A    between atoms: _702  and  _704
REMARK  273  A    between atoms: _704  and  _705
REMARK  274  A    between atoms: _708  and  _710
REMARK  275  A    between atoms: _710  and  _711
REMARK  276  A    between atoms: _713  and  _715
REMARK  277  A    between atoms: _715  and  _716
REMARK  278  A    between atoms: _719  and  _721
REMARK  279  A    between atoms: _721  and  _722
REMARK  280  A    between atoms: _725  and  _727
REMARK  281  A    between atoms: _727  and  _728
REMARK  282  A    between atoms: _727  and  _730
REMARK  283  A    between atoms: _730  and  _731
REMARK  284  A    between atoms: _731  and  _732
REMARK  285  A    between atoms: _735  and  _737
REMARK  286  A    between atoms: _737  and  _738
REMARK  287  A    between atoms: _737  and  _740
REMARK  288  A    between atoms: _740  and  _741
REMARK  289  A    between atoms: _746  and  _747
REMARK  290  A    between atoms: _749  and  _751
REMARK  291  A    between atoms: _751  and  _752
REMARK  292  A    between atoms: _751  and  _754
REMARK  293  A    between atoms: _754  and  _755
REMARK  294  A    between atoms: _760  and  _761
REMARK  295  A    between atoms: _763  and  _765
REMARK  296  A    between atoms: _765  and  _766
REMARK  297  A    between atoms: _765  and  _768
REMARK  298  A    between atoms: _768  and  _769
REMARK  299  A    between atoms: _769  and  _770
REMARK  300  A    between atoms: _770  and  _771
REMARK  301  A    between atoms: _780  and  _782
REMARK  302  A    between atoms: _782  and  _783
REMARK  303  A    between atoms: _786  and  _788
REMARK  304  A    between atoms: _788  and  _789
REMARK  305  A    between atoms: _788  and  _791
REMARK  306  A    between atoms: _791  and  _792
REMARK  307  A    between atoms: _797  and  _798
REMARK  308  A    between atoms: _800  and  _802
REMARK  309  A    between atoms: _802  and  _803
REMARK  310  A    between atoms: _802  and  _805
REMARK  311  A    between atoms: _805  and  _806
REMARK  312  A    between atoms: _809  and  _811
REMARK  313  A    between atoms: _811  and  _812
REMARK  314  A    between atoms: _811  and  _814
REMARK  315  A    between atoms: _814  and  _815
REMARK  316  A    between atoms: _815  and  _816
REMARK  317  A    between atoms: _819  and  _821
REMARK  318  A    between atoms: _821  and  _822
REMARK  319  A    between atoms: _821  and  _824
REMARK  320  A    between atoms: _826  and  _828
REMARK  321  A    between atoms: _828  and  _829
REMARK  322  A    between atoms: _828  and  _831
REMARK  323  A    between atoms: _834  and  _836
REMARK  324  A    between atoms: _836  and  _837
REMARK  325  A    between atoms: _836  and  _839
REMARK  326  A    between atoms: _839  and  _840
REMARK  327  A    between atoms: _840  and  _841
REMARK  328  A    between atoms: _844  and  _846
REMARK  329  A    between atoms: _846  and  _847
REMARK  330  A    between atoms: _846  and  _849
REMARK  331  A    between atoms: _849  and  _850
REMARK  332  A    between atoms: _860  and  _862
REMARK  333  A    between atoms: _862  and  _863
REMARK  334  A    between atoms: _862  and  _865
REMARK  335  A    between atoms: _865  and  _866
REMARK  336  A    between atoms: _869  and  _871
REMARK  337  A    between atoms: _871  and  _872
REMARK  338  A    between atoms: _871  and  _874
REMARK  339  A    between atoms: _874  and  _875
REMARK  340  A    between atoms: _875  and  _876
REMARK  341  A    between atoms: _876  and  _877
REMARK  342  A    between atoms: _886  and  _888
REMARK  343  A    between atoms: _888  and  _889
REMARK  344  A    between atoms: _888  and  _891
REMARK  345  A    between atoms: _891  and  _892
REMARK  346  A    between atoms: _897  and  _898
REMARK                            x       y       z     vdW  Elec       q    Type
REMARK                         _______ _______ _______ _____ _____    ______ ____
ROOT
ATOM      1  O   HOH     1       9.874 -24.387 -18.158  0.00  0.00    +0.000 OA
ENDROOT
TORSDOF 0
REMARK  Name = ../refined-set-2016/3ery/3ery_pocket.pdb
REMARK  346 active torsions:
REMARK  status: ('A' for Active; 'I' for Inactive)
REMARK    1  A    between atoms: _1  and  _3
REMARK    2  A    between atoms: _3  and  _4
REMARK    3  A    between atoms: _3  and  _6
REMARK    4  A    between atoms: _6  and  _7
REMARK    5  A    between atoms: _7  and  _8
REMARK    6  A    between atoms: _10  and  _12
REMARK    7  A    between atoms: _12  and  _13
REMARK    8  A    between atoms: _12  and  _15
REMARK    9  A    between atoms: _15  and  _16
REMARK   10  A    between atoms: _16  and  _17
REMARK   11  A    between atoms: _17  and  _18
REMARK   12  A    between atoms: _27  and  _29
REMARK   13  A    between atoms: _29  and  _30
REMARK   14  A    between atoms: _29  and  _32
REMARK   15  A    between atoms: _32  and  _33
REMARK   16  A    between atoms: _38  and  _39
REMARK   17  A    between atoms: _41  and  _43
REMARK   18  A    between atoms: _43  and  _44
REMARK   19  A    between atoms: _43  and  _46
REMARK   20  A    between atoms: _46  and  _47
REMARK   21  A    between atoms: _52  and  _53
REMARK   22  A    between atoms: _55  and  _57
REMARK   23  A    between atoms: _57  and  _58
REMARK   24  A    between atoms: _57  and  _60
REMARK   25  A    between atoms: _60  and  _61
REMARK   26  A    between atoms: _61  and  _62
REMARK   27  A    between atoms: _65  and  _67
REMARK   28  A    between atoms: _67  and  _68
REMARK   29  A    between atoms: _67  and  _70
REMARK   30  A    between atoms: _70  and  _71
REMARK   31  A    between atoms: _76  and  _77
REMARK   32  A    between atoms: _79  and  _81
REMARK   33  A    between atoms: _81  and  _82
REMARK   34  A    between atoms: _81  and  _84
REMARK   35  A    between atoms: _84  and  _85
REMARK   36  A    between atoms: _87  and  _89
REMARK   37  A    between atoms: _89  and  _90
REMARK   38  A    between atoms: _89  and  _92
REMARK   39  A    between atoms: _95  and  _97
REMARK   40  A    between atoms: _97  and  _98
REMARK   41  A    between atoms: _100  and  _102
REMARK   42  A    between atoms: _102  and  _103
REMARK   43  A    between atoms: _102  and  _105
REMARK   44  A    between atoms: _105  and  _106
REMARK   45  A    between atoms: _112  and  _114
REMARK   46  A    between atoms: _114  and  _115
REMARK   47  A    between atoms: _114  and  _117
REMARK   48  A    between atoms: _120  and  _122
REMARK   49  A    between atoms: _122  and  _123
REMARK   50  A    between atoms: _122  and  _125
REMARK   51  A    between atoms: _125  and  _126
REMARK   52  A    between atoms: _132  and  _134
REMARK   53  A    between atoms: _134  and  _135
REMARK   54  A    between atoms: _134  and  _137
REMARK   55  A    between atoms: _137  and  _138
REMARK   56  A    between atoms: _143  and  _144
REMARK   57  A    between atoms: _146  and  _148
REMARK   58  A    between atoms: _148  and  _149
REMARK   59  A    between atoms: _148  and  _151
REMARK   60  A    between atoms: _151  and  _152
REMARK   61  A    between atoms: _152  and  _153
REMARK   62  A    between atoms: _156  and  _158
REMARK   63  A    between atoms: _158  and  _159
REMARK   64  A    between atoms: _158  and  _161
REMARK   65  A    between atoms: _161  and  _162
REMARK   66  A    between atoms: _162  and  _163
REMARK   67  A    between atoms: _166  and  _168
REMARK   68  A    between atoms: _168  and  _169
REMARK   69  A    between atoms: _168  and  _171
REMARK   70  A    between atoms: _171  and  _172
REMARK   71  A    between atoms: _177  and  _178
REMARK   72  A    between atoms: _180  and  _182
REMARK   73  A    between atoms: _182  and  _183
REMARK   74  A    between atoms: _182  and  _185
REMARK   75  A    between atoms: _185  and  _186
REMARK   76  A    between atoms: _196  and  _198
REMARK   77  A    between atoms: _198  and  _199
REMARK   78  A    between atoms: _198  and  _201
REMARK   79  A    between atoms: _201  and  _202
REMARK   80  A    between atoms: _202  and  _203
REMARK   81  A    between atoms: _206  and  _208
REMARK   82  A    between atoms: _208  and  _209
REMARK   83  A    between atoms: _208  and  _211
REMARK   84  A    between atoms: _211  and  _212
REMARK   85  A    between atoms: _212  and  _213
REMARK   86  A    between atoms: _213  and  _214
REMARK   87  A    between atoms: _223  and  _225
REMARK   88  A    between atoms: _225  and  _226
REMARK   89  A    between atoms: _225  and  _228
REMARK   90  A    between atoms: _228  and  _229
REMARK   91  A    between atoms: _232  and  _234
REMARK   92  A    between atoms: _234  and  _235
REMARK   93  A    between atoms: _234  and  _237
REMARK   94  A    between atoms: _237  and  _238
REMARK   95  A    between atoms: _241  and  _243
REMARK   96  A    between atoms: _243  and  _244
REMARK   97  A    between atoms: _243  and  _246
REMARK   98  A    between atoms: _246  and  _247
REMARK   99  A    between atoms: _247  and  _248
REMARK  100  A    between atoms: _253  and  _255
REMARK  101  A    between atoms: _255  and  _256
REMARK  102  A    between atoms: _255  and  _258
REMARK  103  A    between atoms: _261  and  _263
REMARK  104  A    between atoms: _263  and  _264
REMARK  105  A    between atoms: _267  and  _269
REMARK  106  A    between atoms: _269  and  _270
REMARK  107  A    between atoms: _269  and  _272
REMARK  108  A    between atoms: _272  and  _273
REMARK  109  A    between atoms: _273  and  _274
REMARK  110  A    between atoms: _274  and  _275
REMARK  111  A    between atoms: _275  and  _276
REMARK  112  A    between atoms: _280  and  _282
REMARK  113  A    between atoms: _282  and  _283
REMARK  114  A    between atoms: _285  and  _287
REMARK  115  A    between atoms: _287  and  _288
REMARK  116  A    between atoms: _287  and  _290
REMARK  117  A    between atoms: _290  and  _291
REMARK  118  A    between atoms: _291  and  _292
REMARK  119  A    between atoms: _297  and  _299
REMARK  120  A    between atoms: _299  and  _300
REMARK  121  A    between atoms: _299  and  _302
REMARK  122  A    between atoms: _302  and  _303
REMARK  123  A    between atoms: _303  and  _304
REMARK  124  A    between atoms: _309  and  _311
REMARK  125  A    between atoms: _311  and  _312
REMARK  126  A    between atoms: _311  and  _314
REMARK  127  A    between atoms: _314  and  _315
REMARK  128  A    between atoms: _325  and  _327
REMARK  129  A    between atoms: _327  and  _328
REMARK  130  A    between atoms: _327  and  _330
REMARK  131  A    between atoms: _330  and  _331
REMARK  132  A    between atoms: _337  and  _339
REMARK  133  A    between atoms: _339  and  _340
REMARK  134  A    between atoms: _339  and  _342
REMARK  135  A    between atoms: _345  and  _347
REMARK  136  A    between atoms: _347  and  _348
REMARK  137  A    between atoms: _347  and  _350
REMARK  138  A    between atoms: _350  and  _351
REMARK  139  A    between atoms: _356  and  _358
REMARK  140  A    between atoms: _358  and  _359
REMARK  141  A    between atoms: _358  and  _361
REMARK  142  A    between atoms: _361  and  _362
REMARK  143  A    between atoms: _365  and  _367
REMARK  144  A    between atoms: _367  and  _368
REMARK  145  A    between atoms: _367  and  _370
REMARK  146  A    between atoms: _370  and  _371
REMARK  147  A    between atoms: _371  and  _372
REMARK  148  A    between atoms: _372  and  _373
REMARK  149  A    between atoms: _382  and  _384
REMARK  150  A    between atoms: _384  and  _385
REMARK  151  A    between atoms: _384  and  _387
REMARK  152  A    between atoms: _387  and  _388
REMARK  153  A    between atoms: _391  and  _393
REMARK  154  A    between atoms: _393  and  _394
REMARK  155  A    between atoms: _393  and  _396
REMARK  156  A    between atoms: _396  and  _397
REMARK  157  A    between atoms: _400  and  _402
REMARK  158  A    between atoms: _402  and  _403
REMARK  159  A    between atoms: _402  and  _405
REMARK  160  A    between atoms: _405  and  _406
REMARK  161  A    between atoms: _409  and  _411
REMARK  162  A    between atoms: _411  and  _412
REMARK  163  A    between atoms: _411  and  _414
REMARK  164  A    between atoms: _414  and  _415
REMARK  165  A    between atoms: _420  and  _421
REMARK  166  A    between atoms: _423  and  _425
REMARK  167  A    between atoms: _425  and  _426
REMARK  168  A    between atoms: _425  and  _428
REMARK  169  A    between atoms: _428  and  _429
REMARK  170  A    between atoms: _432  and  _434
REMARK  171  A    between atoms: _434  and  _435
REMARK  172  A    between atoms: _434  and  _437
REMARK  173  A    between atoms: _437  and  _438
REMARK  174  A    between atoms: _438  and  _439
REMARK  175  A    between atoms: _444  and  _446
REMARK  176  A    between atoms: _446  and  _447
REMARK  177  A    between atoms: _446  and  _449
REMARK  178  A    between atoms: _449  and  _450
REMARK  179  A    between atoms: _450  and  _451
REMARK  180  A    between atoms: _451  and  _452
REMARK  181  A    between atoms: _461  and  _463
REMARK  182  A    between atoms: _463  and  _464
REMARK  183  A    between atoms: _463  and  _466
REMARK  184  A    between atoms: _466  and  _467
REMARK  185  A    between atoms: _472  and  _473
REMARK  186  A    between atoms: _475  and  _477
REMARK  187  A    between atoms: _477  and  _478
REMARK  188  A    between atoms: _480  and  _482
REMARK  189  A    between atoms: _482  and  _483
REMARK  190  A    between atoms: _482  and  _485
REMARK  191  A    between atoms: _485  and  _486
REMARK  192  A    between atoms: _491  and  _492
REMARK  193  A    between atoms: _494  and  _496
REMARK  194  A    between atoms: _496  and  _497
REMARK  195  A    between atoms: _496  and  _499
REMARK  196  A    between atoms: _499  and  _500
REMARK  197  A    between atoms: _500  and  _501
REMARK  198  A    between atoms: _504  and  _506
REMARK  199  A    between atoms: _506  and  _507
REMARK  200  A    between atoms: _506  and  _509
REMARK  201  A    between atoms: _509  and  _510
REMARK  202  A    between atoms: _516  and  _518
REMARK  203  A    between atoms: _518  and  _519
REMARK  204  A    between atoms: _522  and  _524
REMARK  205  A    between atoms: _524  and  _525
REMARK  206  A    between atoms: _524  and  _527
REMARK  207  A    between atoms: _527  and  _528
REMARK  208  A    between atoms: _533  and  _534
REMARK  209  A    between atoms: _536  and  _538
REMARK  210  A    between atoms: _538  and  _539
REMARK  211  A    between atoms: _538  and  _541
REMARK  212  A    between atoms: _541  and  _542
REMARK  213  A    between atoms: _547  and  _548
REMARK  214  A    between atoms: _550  and  _552
REMARK  215  A    between atoms: _552  and  _553
REMARK  216  A    between atoms: _552  and  _555
REMARK  217  A    between atoms: _555  and  _556
REMARK  218  A    between atoms: _559  and  _561
REMARK  219  A    between atoms: _561  and  _562
REMARK  220  A    between atoms: _561  and  _564
REMARK  221  A    between atoms: _564  and  _565
REMARK  222  A    between atoms: _575  and  _577
REMARK  223  A    between atoms: _577  and  _578
REMARK  224  A    between atoms: _581  and  _583
REMARK  225  A    between atoms: _583  and  _584
REMARK  226  A    between atoms: _587  and  _589
REMARK  227  A    between atoms: _589  and  _590
REMARK  228  A    between atoms: _589  and  _592
REMARK  229  A    between atoms: _592  and  _593
REMARK  230  A    between atoms: _593  and  _594
REMARK  231  A    between atoms: _599  and  _601
REMARK  232  A    between atoms: _601  and  _602
REMARK  233  A    between atoms: _601  and  _604
REMARK  234  A    between atoms: _604  and  _605
REMARK  235  A    between atoms: _608  and  _610
REMARK  236  A    between atoms: _610  and  _611
REMARK  237  A    between atoms: _610  and  _613
REMARK  238  A    between atoms: _613  and  _614
REMARK  239  A    between atoms: _617  and  _619
REMARK  240  A    between atoms: _619  and  _620
REMARK  241  A    between atoms: _619  and  _622
REMARK  242  A    between atoms: _622  and  _623
REMARK  243  A    between atoms: _623  and  _624
REMARK  244  A    between atoms: _624  and  _625
REMARK  245  A    between atoms: _634  and  _636
REMARK  246  A    between atoms: _636  and  _637
REMARK  247  A    between atoms: _636  and  _639
REMARK  248  A    between atoms: _639  and  _640
REMARK  249  A    between atoms: _640  and  _641
REMARK  250  A    between atoms: _641  and  _642
REMARK  251  A    between atoms: _651  and  _653
REMARK  252  A    between atoms: _653  and  _654
REMARK  253  A    between atoms: _653  and  _656
REMARK  254  A    between atoms: _656  and  _657
REMARK  255  A    between atoms: _657  and  _658
REMARK  256  A    between atoms: _658  and  _659
REMARK  257  A    between atoms: _659  and  _660
REMARK  258  A    between atoms: _664  and  _666
REMARK  259  A    between atoms: _666  and  _667
REMARK  260  A    between atoms: _666  and  _669
REMARK  261  A    between atoms: _669  and  _670
REMARK  262  A    between atoms: _680  and  _682
REMARK  263  A    between atoms: _682  and  _683
REMARK  264  A    between atoms: _682  and  _685
REMARK  265  A    between atoms: _685  and  _686
REMARK  266  A    between atoms: _686  and  _687
REMARK  267  A    between atoms: _690  and  _692
REMARK  268  A    between atoms: _692  and  _693
REMARK  269  A    between atoms: _692  and  _695
REMARK  270  A    between atoms: _695  and  _696
REMARK  271  A    between atoms: _696  and  _697
REMARK  272  A    between atoms: _702  and  _704
REMARK  273  A    between atoms: _704  and  _705
REMARK  274  A    between atoms: _708  and  _710
REMARK  275  A    between atoms: _710  and  _711
REMARK  276  A    between atoms: _713  and  _715
REMARK  277  A    between atoms: _715  and  _716
REMARK  278  A    between atoms: _719  and  _721
REMARK  279  A    between atoms: _721  and  _722
REMARK  280  A    between atoms: _725  and  _727
REMARK  281  A    between atoms: _727  and  _728
REMARK  282  A    between atoms: _727  and  _730
REMARK  283  A    between atoms: _730  and  _731
REMARK  284  A    between atoms: _731  and  _732
REMARK  285  A    between atoms: _735  and  _737
REMARK  286  A    between atoms: _737  and  _738
REMARK  287  A    between atoms: _737  and  _740
REMARK  288  A    between atoms: _740  and  _741
REMARK  289  A    between atoms: _746  and  _747
REMARK  290  A    between atoms: _749  and  _751
REMARK  291  A    between atoms: _751  and  _752
REMARK  292  A    between atoms: _751  and  _754
REMARK  293  A    between atoms: _754  and  _755
REMARK  294  A    between atoms: _760  and  _761
REMARK  295  A    between atoms: _763  and  _765
REMARK  296  A    between atoms: _765  and  _766
REMARK  297  A    between atoms: _765  and  _768
REMARK  298  A    between atoms: _768  and  _769
REMARK  299  A    between atoms: _769  and  _770
REMARK  300  A    between atoms: _770  and  _771
REMARK  301  A    between atoms: _780  and  _782
REMARK  302  A    between atoms: _782  and  _783
REMARK  303  A    between atoms: _786  and  _788
REMARK  304  A    between atoms: _788  and  _789
REMARK  305  A    between atoms: _788  and  _791
REMARK  306  A    between atoms: _791  and  _792
REMARK  307  A    between atoms: _797  and  _798
REMARK  308  A    between atoms: _800  and  _802
REMARK  309  A    between atoms: _802  and  _803
REMARK  310  A    between atoms: _802  and  _805
REMARK  311  A    between atoms: _805  and  _806
REMARK  312  A    between atoms: _809  and  _811
REMARK  313  A    between atoms: _811  and  _812
REMARK  314  A    between atoms: _811  and  _814
REMARK  315  A    between atoms: _814  and  _815
REMARK  316  A    between atoms: _815  and  _816
REMARK  317  A    between atoms: _819  and  _821
REMARK  318  A    between atoms: _821  and  _822
REMARK  319  A    between atoms: _821  and  _824
REMARK  320  A    between atoms: _826  and  _828
REMARK  321  A    between atoms: _828  and  _829
REMARK  322  A    between atoms: _828  and  _831
REMARK  323  A    between atoms: _834  and  _836
REMARK  324  A    between atoms: _836  and  _837
REMARK  325  A    between atoms: _836  and  _839
REMARK  326  A    between atoms: _839  and  _840
REMARK  327  A    between atoms: _840  and  _841
REMARK  328  A    between atoms: _844  and  _846
REMARK  329  A    between atoms: _846  and  _847
REMARK  330  A    between atoms: _846  and  _849
REMARK  331  A    between atoms: _849  and  _850
REMARK  332  A    between atoms: _860  and  _862
REMARK  333  A    between atoms: _862  and  _863
REMARK  334  A    between atoms: _862  and  _865
REMARK  335  A    between atoms: _865  and  _866
REMARK  336  A    between atoms: _869  and  _871
REMARK  337  A    between atoms: _871  and  _872
REMARK  338  A    between atoms: _871  and  _874
REMARK  339  A    between atoms: _874  and  _875
REMARK  340  A    between atoms: _875  and  _876
REMARK  341  A    between atoms: _876  and  _877
REMARK  342  A    between atoms: _886  and  _888
REMARK  343  A    between atoms: _888  and  _889
REMARK  344  A    between atoms: _888  and  _891
REMARK  345  A    between atoms: _891  and  _892
REMARK  346  A    between atoms: _897  and  _898
REMARK                            x       y       z     vdW  Elec       q    Type
REMARK                         _______ _______ _______ _____ _____    ______ ____
ROOT
ATOM      1  O   HOH     1      15.882  -3.087  -1.630  0.00  0.00    +0.000 OA
ENDROOT
TORSDOF 0
REMARK  Name = ../refined-set-2016/3ery/3ery_pocket.pdb
REMARK  346 active torsions:
REMARK  status: ('A' for Active; 'I' for Inactive)
REMARK    1  A    between atoms: _1  and  _3
REMARK    2  A    between atoms: _3  and  _4
REMARK    3  A    between atoms: _3  and  _6
REMARK    4  A    between atoms: _6  and  _7
REMARK    5  A    between atoms: _7  and  _8
REMARK    6  A    between atoms: _10  and  _12
REMARK    7  A    between atoms: _12  and  _13
REMARK    8  A    between atoms: _12  and  _15
REMARK    9  A    between atoms: _15  and  _16
REMARK   10  A    between atoms: _16  and  _17
REMARK   11  A    between atoms: _17  and  _18
REMARK   12  A    between atoms: _27  and  _29
REMARK   13  A    between atoms: _29  and  _30
REMARK   14  A    between atoms: _29  and  _32
REMARK   15  A    between atoms: _32  and  _33
REMARK   16  A    between atoms: _38  and  _39
REMARK   17  A    between atoms: _41  and  _43
REMARK   18  A    between atoms: _43  and  _44
REMARK   19  A    between atoms: _43  and  _46
REMARK   20  A    between atoms: _46  and  _47
REMARK   21  A    between atoms: _52  and  _53
REMARK   22  A    between atoms: _55  and  _57
REMARK   23  A    between atoms: _57  and  _58
REMARK   24  A    between atoms: _57  and  _60
REMARK   25  A    between atoms: _60  and  _61
REMARK   26  A    between atoms: _61  and  _62
REMARK   27  A    between atoms: _65  and  _67
REMARK   28  A    between atoms: _67  and  _68
REMARK   29  A    between atoms: _67  and  _70
REMARK   30  A    between atoms: _70  and  _71
REMARK   31  A    between atoms: _76  and  _77
REMARK   32  A    between atoms: _79  and  _81
REMARK   33  A    between atoms: _81  and  _82
REMARK   34  A    between atoms: _81  and  _84
REMARK   35  A    between atoms: _84  and  _85
REMARK   36  A    between atoms: _87  and  _89
REMARK   37  A    between atoms: _89  and  _90
REMARK   38  A    between atoms: _89  and  _92
REMARK   39  A    between atoms: _95  and  _97
REMARK   40  A    between atoms: _97  and  _98
REMARK   41  A    between atoms: _100  and  _102
REMARK   42  A    between atoms: _102  and  _103
REMARK   43  A    between atoms: _102  and  _105
REMARK   44  A    between atoms: _105  and  _106
REMARK   45  A    between atoms: _112  and  _114
REMARK   46  A    between atoms: _114  and  _115
REMARK   47  A    between atoms: _114  and  _117
REMARK   48  A    between atoms: _120  and  _122
REMARK   49  A    between atoms: _122  and  _123
REMARK   50  A    between atoms: _122  and  _125
REMARK   51  A    between atoms: _125  and  _126
REMARK   52  A    between atoms: _132  and  _134
REMARK   53  A    between atoms: _134  and  _135
REMARK   54  A    between atoms: _134  and  _137
REMARK   55  A    between atoms: _137  and  _138
REMARK   56  A    between atoms: _143  and  _144
REMARK   57  A    between atoms: _146  and  _148
REMARK   58  A    between atoms: _148  and  _149
REMARK   59  A    between atoms: _148  and  _151
REMARK   60  A    between atoms: _151  and  _152
REMARK   61  A    between atoms: _152  and  _153
REMARK   62  A    between atoms: _156  and  _158
REMARK   63  A    between atoms: _158  and  _159
REMARK   64  A    between atoms: _158  and  _161
REMARK   65  A    between atoms: _161  and  _162
REMARK   66  A    between atoms: _162  and  _163
REMARK   67  A    between atoms: _166  and  _168
REMARK   68  A    between atoms: _168  and  _169
REMARK   69  A    between atoms: _168  and  _171
REMARK   70  A    between atoms: _171  and  _172
REMARK   71  A    between atoms: _177  and  _178
REMARK   72  A    between atoms: _180  and  _182
REMARK   73  A    between atoms: _182  and  _183
REMARK   74  A    between atoms: _182  and  _185
REMARK   75  A    between atoms: _185  and  _186
REMARK   76  A    between atoms: _196  and  _198
REMARK   77  A    between atoms: _198  and  _199
REMARK   78  A    between atoms: _198  and  _201
REMARK   79  A    between atoms: _201  and  _202
REMARK   80  A    between atoms: _202  and  _203
REMARK   81  A    between atoms: _206  and  _208
REMARK   82  A    between atoms: _208  and  _209
REMARK   83  A    between atoms: _208  and  _211
REMARK   84  A    between atoms: _211  and  _212
REMARK   85  A    between atoms: _212  and  _213
REMARK   86  A    between atoms: _213  and  _214
REMARK   87  A    between atoms: _223  and  _225
REMARK   88  A    between atoms: _225  and  _226
REMARK   89  A    between atoms: _225  and  _228
REMARK   90  A    between atoms: _228  and  _229
REMARK   91  A    between atoms: _232  and  _234
REMARK   92  A    between atoms: _234  and  _235
REMARK   93  A    between atoms: _234  and  _237
REMARK   94  A    between atoms: _237  and  _238
REMARK   95  A    between atoms: _241  and  _243
REMARK   96  A    between atoms: _243  and  _244
REMARK   97  A    between atoms: _243  and  _246
REMARK   98  A    between atoms: _246  and  _247
REMARK   99  A    between atoms: _247  and  _248
REMARK  100  A    between atoms: _253  and  _255
REMARK  101  A    between atoms: _255  and  _256
REMARK  102  A    between atoms: _255  and  _258
REMARK  103  A    between atoms: _261  and  _263
REMARK  104  A    between atoms: _263  and  _264
REMARK  105  A    between atoms: _267  and  _269
REMARK  106  A    between atoms: _269  and  _270
REMARK  107  A    between atoms: _269  and  _272
REMARK  108  A    between atoms: _272  and  _273
REMARK  109  A    between atoms: _273  and  _274
REMARK  110  A    between atoms: _274  and  _275
REMARK  111  A    between atoms: _275  and  _276
REMARK  112  A    between atoms: _280  and  _282
REMARK  113  A    between atoms: _282  and  _283
REMARK  114  A    between atoms: _285  and  _287
REMARK  115  A    between atoms: _287  and  _288
REMARK  116  A    between atoms: _287  and  _290
REMARK  117  A    between atoms: _290  and  _291
REMARK  118  A    between atoms: _291  and  _292
REMARK  119  A    between atoms: _297  and  _299
REMARK  120  A    between atoms: _299  and  _300
REMARK  121  A    between atoms: _299  and  _302
REMARK  122  A    between atoms: _302  and  _303
REMARK  123  A    between atoms: _303  and  _304
REMARK  124  A    between atoms: _309  and  _311
REMARK  125  A    between atoms: _311  and  _312
REMARK  126  A    between atoms: _311  and  _314
REMARK  127  A    between atoms: _314  and  _315
REMARK  128  A    between atoms: _325  and  _327
REMARK  129  A    between atoms: _327  and  _328
REMARK  130  A    between atoms: _327  and  _330
REMARK  131  A    between atoms: _330  and  _331
REMARK  132  A    between atoms: _337  and  _339
REMARK  133  A    between atoms: _339  and  _340
REMARK  134  A    between atoms: _339  and  _342
REMARK  135  A    between atoms: _345  and  _347
REMARK  136  A    between atoms: _347  and  _348
REMARK  137  A    between atoms: _347  and  _350
REMARK  138  A    between atoms: _350  and  _351
REMARK  139  A    between atoms: _356  and  _358
REMARK  140  A    between atoms: _358  and  _359
REMARK  141  A    between atoms: _358  and  _361
REMARK  142  A    between atoms: _361  and  _362
REMARK  143  A    between atoms: _365  and  _367
REMARK  144  A    between atoms: _367  and  _368
REMARK  145  A    between atoms: _367  and  _370
REMARK  146  A    between atoms: _370  and  _371
REMARK  147  A    between atoms: _371  and  _372
REMARK  148  A    between atoms: _372  and  _373
REMARK  149  A    between atoms: _382  and  _384
REMARK  150  A    between atoms: _384  and  _385
REMARK  151  A    between atoms: _384  and  _387
REMARK  152  A    between atoms: _387  and  _388
REMARK  153  A    between atoms: _391  and  _393
REMARK  154  A    between atoms: _393  and  _394
REMARK  155  A    between atoms: _393  and  _396
REMARK  156  A    between atoms: _396  and  _397
REMARK  157  A    between atoms: _400  and  _402
REMARK  158  A    between atoms: _402  and  _403
REMARK  159  A    between atoms: _402  and  _405
REMARK  160  A    between atoms: _405  and  _406
REMARK  161  A    between atoms: _409  and  _411
REMARK  162  A    between atoms: _411  and  _412
REMARK  163  A    between atoms: _411  and  _414
REMARK  164  A    between atoms: _414  and  _415
REMARK  165  A    between atoms: _420  and  _421
REMARK  166  A    between atoms: _423  and  _425
REMARK  167  A    between atoms: _425  and  _426
REMARK  168  A    between atoms: _425  and  _428
REMARK  169  A    between atoms: _428  and  _429
REMARK  170  A    between atoms: _432  and  _434
REMARK  171  A    between atoms: _434  and  _435
REMARK  172  A    between atoms: _434  and  _437
REMARK  173  A    between atoms: _437  and  _438
REMARK  174  A    between atoms: _438  and  _439
REMARK  175  A    between atoms: _444  and  _446
REMARK  176  A    between atoms: _446  and  _447
REMARK  177  A    between atoms: _446  and  _449
REMARK  178  A    between atoms: _449  and  _450
REMARK  179  A    between atoms: _450  and  _451
REMARK  180  A    between atoms: _451  and  _452
REMARK  181  A    between atoms: _461  and  _463
REMARK  182  A    between atoms: _463  and  _464
REMARK  183  A    between atoms: _463  and  _466
REMARK  184  A    between atoms: _466  and  _467
REMARK  185  A    between atoms: _472  and  _473
REMARK  186  A    between atoms: _475  and  _477
REMARK  187  A    between atoms: _477  and  _478
REMARK  188  A    between atoms: _480  and  _482
REMARK  189  A    between atoms: _482  and  _483
REMARK  190  A    between atoms: _482  and  _485
REMARK  191  A    between atoms: _485  and  _486
REMARK  192  A    between atoms: _491  and  _492
REMARK  193  A    between atoms: _494  and  _496
REMARK  194  A    between atoms: _496  and  _497
REMARK  195  A    between atoms: _496  and  _499
REMARK  196  A    between atoms: _499  and  _500
REMARK  197  A    between atoms: _500  and  _501
REMARK  198  A    between atoms: _504  and  _506
REMARK  199  A    between atoms: _506  and  _507
REMARK  200  A    between atoms: _506  and  _509
REMARK  201  A    between atoms: _509  and  _510
REMARK  202  A    between atoms: _516  and  _518
REMARK  203  A    between atoms: _518  and  _519
REMARK  204  A    between atoms: _522  and  _524
REMARK  205  A    between atoms: _524  and  _525
REMARK  206  A    between atoms: _524  and  _527
REMARK  207  A    between atoms: _527  and  _528
REMARK  208  A    between atoms: _533  and  _534
REMARK  209  A    between atoms: _536  and  _538
REMARK  210  A    between atoms: _538  and  _539
REMARK  211  A    between atoms: _538  and  _541
REMARK  212  A    between atoms: _541  and  _542
REMARK  213  A    between atoms: _547  and  _548
REMARK  214  A    between atoms: _550  and  _552
REMARK  215  A    between atoms: _552  and  _553
REMARK  216  A    between atoms: _552  and  _555
REMARK  217  A    between atoms: _555  and  _556
REMARK  218  A    between atoms: _559  and  _561
REMARK  219  A    between atoms: _561  and  _562
REMARK  220  A    between atoms: _561  and  _564
REMARK  221  A    between atoms: _564  and  _565
REMARK  222  A    between atoms: _575  and  _577
REMARK  223  A    between atoms: _577  and  _578
REMARK  224  A    between atoms: _581  and  _583
REMARK  225  A    between atoms: _583  and  _584
REMARK  226  A    between atoms: _587  and  _589
REMARK  227  A    between atoms: _589  and  _590
REMARK  228  A    between atoms: _589  and  _592
REMARK  229  A    between atoms: _592  and  _593
REMARK  230  A    between atoms: _593  and  _594
REMARK  231  A    between atoms: _599  and  _601
REMARK  232  A    between atoms: _601  and  _602
REMARK  233  A    between atoms: _601  and  _604
REMARK  234  A    between atoms: _604  and  _605
REMARK  235  A    between atoms: _608  and  _610
REMARK  236  A    between atoms: _610  and  _611
REMARK  237  A    between atoms: _610  and  _613
REMARK  238  A    between atoms: _613  and  _614
REMARK  239  A    between atoms: _617  and  _619
REMARK  240  A    between atoms: _619  and  _620
REMARK  241  A    between atoms: _619  and  _622
REMARK  242  A    between atoms: _622  and  _623
REMARK  243  A    between atoms: _623  and  _624
REMARK  244  A    between atoms: _624  and  _625
REMARK  245  A    between atoms: _634  and  _636
REMARK  246  A    between atoms: _636  and  _637
REMARK  247  A    between atoms: _636  and  _639
REMARK  248  A    between atoms: _639  and  _640
REMARK  249  A    between atoms: _640  and  _641
REMARK  250  A    between atoms: _641  and  _642
REMARK  251  A    between atoms: _651  and  _653
REMARK  252  A    between atoms: _653  and  _654
REMARK  253  A    between atoms: _653  and  _656
REMARK  254  A    between atoms: _656  and  _657
REMARK  255  A    between atoms: _657  and  _658
REMARK  256  A    between atoms: _658  and  _659
REMARK  257  A    between atoms: _659  and  _660
REMARK  258  A    between atoms: _664  and  _666
REMARK  259  A    between atoms: _666  and  _667
REMARK  260  A    between atoms: _666  and  _669
REMARK  261  A    between atoms: _669  and  _670
REMARK  262  A    between atoms: _680  and  _682
REMARK  263  A    between atoms: _682  and  _683
REMARK  264  A    between atoms: _682  and  _685
REMARK  265  A    between atoms: _685  and  _686
REMARK  266  A    between atoms: _686  and  _687
REMARK  267  A    between atoms: _690  and  _692
REMARK  268  A    between atoms: _692  and  _693
REMARK  269  A    between atoms: _692  and  _695
REMARK  270  A    between atoms: _695  and  _696
REMARK  271  A    between atoms: _696  and  _697
REMARK  272  A    between atoms: _702  and  _704
REMARK  273  A    between atoms: _704  and  _705
REMARK  274  A    between atoms: _708  and  _710
REMARK  275  A    between atoms: _710  and  _711
REMARK  276  A    between atoms: _713  and  _715
REMARK  277  A    between atoms: _715  and  _716
REMARK  278  A    between atoms: _719  and  _721
REMARK  279  A    between atoms: _721  and  _722
REMARK  280  A    between atoms: _725  and  _727
REMARK  281  A    between atoms: _727  and  _728
REMARK  282  A    between atoms: _727  and  _730
REMARK  283  A    between atoms: _730  and  _731
REMARK  284  A    between atoms: _731  and  _732
REMARK  285  A    between atoms: _735  and  _737
REMARK  286  A    between atoms: _737  and  _738
REMARK  287  A    between atoms: _737  and  _740
REMARK  288  A    between atoms: _740  and  _741
REMARK  289  A    between atoms: _746  and  _747
REMARK  290  A    between atoms: _749  and  _751
REMARK  291  A    between atoms: _751  and  _752
REMARK  292  A    between atoms: _751  and  _754
REMARK  293  A    between atoms: _754  and  _755
REMARK  294  A    between atoms: _760  and  _761
REMARK  295  A    between atoms: _763  and  _765
REMARK  296  A    between atoms: _765  and  _766
REMARK  297  A    between atoms: _765  and  _768
REMARK  298  A    between atoms: _768  and  _769
REMARK  299  A    between atoms: _769  and  _770
REMARK  300  A    between atoms: _770  and  _771
REMARK  301  A    between atoms: _780  and  _782
REMARK  302  A    between atoms: _782  and  _783
REMARK  303  A    between atoms: _786  and  _788
REMARK  304  A    between atoms: _788  and  _789
REMARK  305  A    between atoms: _788  and  _791
REMARK  306  A    between atoms: _791  and  _792
REMARK  307  A    between atoms: _797  and  _798
REMARK  308  A    between atoms: _800  and  _802
REMARK  309  A    between atoms: _802  and  _803
REMARK  310  A    between atoms: _802  and  _805
REMARK  311  A    between atoms: _805  and  _806
REMARK  312  A    between atoms: _809  and  _811
REMARK  313  A    between atoms: _811  and  _812
REMARK  314  A    between atoms: _811  and  _814
REMARK  315  A    between atoms: _814  and  _815
REMARK  316  A    between atoms: _815  and  _816
REMARK  317  A    between atoms: _819  and  _821
REMARK  318  A    between atoms: _821  and  _822
REMARK  319  A    between atoms: _821  and  _824
REMARK  320  A    between atoms: _826  and  _828
REMARK  321  A    between atoms: _828  and  _829
REMARK  322  A    between atoms: _828  and  _831
REMARK  323  A    between atoms: _834  and  _836
REMARK  324  A    between atoms: _836  and  _837
REMARK  325  A    between atoms: _836  and  _839
REMARK  326  A    between atoms: _839  and  _840
REMARK  327  A    between atoms: _840  and  _841
REMARK  328  A    between atoms: _844  and  _846
REMARK  329  A    between atoms: _846  and  _847
REMARK  330  A    between atoms: _846  and  _849
REMARK  331  A    between atoms: _849  and  _850
REMARK  332  A    between atoms: _860  and  _862
REMARK  333  A    between atoms: _862  and  _863
REMARK  334  A    between atoms: _862  and  _865
REMARK  335  A    between atoms: _865  and  _866
REMARK  336  A    between atoms: _869  and  _871
REMARK  337  A    between atoms: _871  and  _872
REMARK  338  A    between atoms: _871  and  _874
REMARK  339  A    between atoms: _874  and  _875
REMARK  340  A    between atoms: _875  and  _876
REMARK  341  A    between atoms: _876  and  _877
REMARK  342  A    between atoms: _886  and  _888
REMARK  343  A    between atoms: _888  and  _889
REMARK  344  A    between atoms: _888  and  _891
REMARK  345  A    between atoms: _891  and  _892
REMARK  346  A    between atoms: _897  and  _898
REMARK                            x       y       z     vdW  Elec       q    Type
REMARK                         _______ _______ _______ _____ _____    ______ ____
ROOT
ATOM      1  O   HOH     1      -0.024 -20.620  -9.024  0.00  0.00    +0.000 OA
ENDROOT
TORSDOF 0
REMARK  Name = ../refined-set-2016/3ery/3ery_pocket.pdb
REMARK  346 active torsions:
REMARK  status: ('A' for Active; 'I' for Inactive)
REMARK    1  A    between atoms: _1  and  _3
REMARK    2  A    between atoms: _3  and  _4
REMARK    3  A    between atoms: _3  and  _6
REMARK    4  A    between atoms: _6  and  _7
REMARK    5  A    between atoms: _7  and  _8
REMARK    6  A    between atoms: _10  and  _12
REMARK    7  A    between atoms: _12  and  _13
REMARK    8  A    between atoms: _12  and  _15
REMARK    9  A    between atoms: _15  and  _16
REMARK   10  A    between atoms: _16  and  _17
REMARK   11  A    between atoms: _17  and  _18
REMARK   12  A    between atoms: _27  and  _29
REMARK   13  A    between atoms: _29  and  _30
REMARK   14  A    between atoms: _29  and  _32
REMARK   15  A    between atoms: _32  and  _33
REMARK   16  A    between atoms: _38  and  _39
REMARK   17  A    between atoms: _41  and  _43
REMARK   18  A    between atoms: _43  and  _44
REMARK   19  A    between atoms: _43  and  _46
REMARK   20  A    between atoms: _46  and  _47
REMARK   21  A    between atoms: _52  and  _53
REMARK   22  A    between atoms: _55  and  _57
REMARK   23  A    between atoms: _57  and  _58
REMARK   24  A    between atoms: _57  and  _60
REMARK   25  A    between atoms: _60  and  _61
REMARK   26  A    between atoms: _61  and  _62
REMARK   27  A    between atoms: _65  and  _67
REMARK   28  A    between atoms: _67  and  _68
REMARK   29  A    between atoms: _67  and  _70
REMARK   30  A    between atoms: _70  and  _71
REMARK   31  A    between atoms: _76  and  _77
REMARK   32  A    between atoms: _79  and  _81
REMARK   33  A    between atoms: _81  and  _82
REMARK   34  A    between atoms: _81  and  _84
REMARK   35  A    between atoms: _84  and  _85
REMARK   36  A    between atoms: _87  and  _89
REMARK   37  A    between atoms: _89  and  _90
REMARK   38  A    between atoms: _89  and  _92
REMARK   39  A    between atoms: _95  and  _97
REMARK   40  A    between atoms: _97  and  _98
REMARK   41  A    between atoms: _100  and  _102
REMARK   42  A    between atoms: _102  and  _103
REMARK   43  A    between atoms: _102  and  _105
REMARK   44  A    between atoms: _105  and  _106
REMARK   45  A    between atoms: _112  and  _114
REMARK   46  A    between atoms: _114  and  _115
REMARK   47  A    between atoms: _114  and  _117
REMARK   48  A    between atoms: _120  and  _122
REMARK   49  A    between atoms: _122  and  _123
REMARK   50  A    between atoms: _122  and  _125
REMARK   51  A    between atoms: _125  and  _126
REMARK   52  A    between atoms: _132  and  _134
REMARK   53  A    between atoms: _134  and  _135
REMARK   54  A    between atoms: _134  and  _137
REMARK   55  A    between atoms: _137  and  _138
REMARK   56  A    between atoms: _143  and  _144
REMARK   57  A    between atoms: _146  and  _148
REMARK   58  A    between atoms: _148  and  _149
REMARK   59  A    between atoms: _148  and  _151
REMARK   60  A    between atoms: _151  and  _152
REMARK   61  A    between atoms: _152  and  _153
REMARK   62  A    between atoms: _156  and  _158
REMARK   63  A    between atoms: _158  and  _159
REMARK   64  A    between atoms: _158  and  _161
REMARK   65  A    between atoms: _161  and  _162
REMARK   66  A    between atoms: _162  and  _163
REMARK   67  A    between atoms: _166  and  _168
REMARK   68  A    between atoms: _168  and  _169
REMARK   69  A    between atoms: _168  and  _171
REMARK   70  A    between atoms: _171  and  _172
REMARK   71  A    between atoms: _177  and  _178
REMARK   72  A    between atoms: _180  and  _182
REMARK   73  A    between atoms: _182  and  _183
REMARK   74  A    between atoms: _182  and  _185
REMARK   75  A    between atoms: _185  and  _186
REMARK   76  A    between atoms: _196  and  _198
REMARK   77  A    between atoms: _198  and  _199
REMARK   78  A    between atoms: _198  and  _201
REMARK   79  A    between atoms: _201  and  _202
REMARK   80  A    between atoms: _202  and  _203
REMARK   81  A    between atoms: _206  and  _208
REMARK   82  A    between atoms: _208  and  _209
REMARK   83  A    between atoms: _208  and  _211
REMARK   84  A    between atoms: _211  and  _212
REMARK   85  A    between atoms: _212  and  _213
REMARK   86  A    between atoms: _213  and  _214
REMARK   87  A    between atoms: _223  and  _225
REMARK   88  A    between atoms: _225  and  _226
REMARK   89  A    between atoms: _225  and  _228
REMARK   90  A    between atoms: _228  and  _229
REMARK   91  A    between atoms: _232  and  _234
REMARK   92  A    between atoms: _234  and  _235
REMARK   93  A    between atoms: _234  and  _237
REMARK   94  A    between atoms: _237  and  _238
REMARK   95  A    between atoms: _241  and  _243
REMARK   96  A    between atoms: _243  and  _244
REMARK   97  A    between atoms: _243  and  _246
REMARK   98  A    between atoms: _246  and  _247
REMARK   99  A    between atoms: _247  and  _248
REMARK  100  A    between atoms: _253  and  _255
REMARK  101  A    between atoms: _255  and  _256
REMARK  102  A    between atoms: _255  and  _258
REMARK  103  A    between atoms: _261  and  _263
REMARK  104  A    between atoms: _263  and  _264
REMARK  105  A    between atoms: _267  and  _269
REMARK  106  A    between atoms: _269  and  _270
REMARK  107  A    between atoms: _269  and  _272
REMARK  108  A    between atoms: _272  and  _273
REMARK  109  A    between atoms: _273  and  _274
REMARK  110  A    between atoms: _274  and  _275
REMARK  111  A    between atoms: _275  and  _276
REMARK  112  A    between atoms: _280  and  _282
REMARK  113  A    between atoms: _282  and  _283
REMARK  114  A    between atoms: _285  and  _287
REMARK  115  A    between atoms: _287  and  _288
REMARK  116  A    between atoms: _287  and  _290
REMARK  117  A    between atoms: _290  and  _291
REMARK  118  A    between atoms: _291  and  _292
REMARK  119  A    between atoms: _297  and  _299
REMARK  120  A    between atoms: _299  and  _300
REMARK  121  A    between atoms: _299  and  _302
REMARK  122  A    between atoms: _302  and  _303
REMARK  123  A    between atoms: _303  and  _304
REMARK  124  A    between atoms: _309  and  _311
REMARK  125  A    between atoms: _311  and  _312
REMARK  126  A    between atoms: _311  and  _314
REMARK  127  A    between atoms: _314  and  _315
REMARK  128  A    between atoms: _325  and  _327
REMARK  129  A    between atoms: _327  and  _328
REMARK  130  A    between atoms: _327  and  _330
REMARK  131  A    between atoms: _330  and  _331
REMARK  132  A    between atoms: _337  and  _339
REMARK  133  A    between atoms: _339  and  _340
REMARK  134  A    between atoms: _339  and  _342
REMARK  135  A    between atoms: _345  and  _347
REMARK  136  A    between atoms: _347  and  _348
REMARK  137  A    between atoms: _347  and  _350
REMARK  138  A    between atoms: _350  and  _351
REMARK  139  A    between atoms: _356  and  _358
REMARK  140  A    between atoms: _358  and  _359
REMARK  141  A    between atoms: _358  and  _361
REMARK  142  A    between atoms: _361  and  _362
REMARK  143  A    between atoms: _365  and  _367
REMARK  144  A    between atoms: _367  and  _368
REMARK  145  A    between atoms: _367  and  _370
REMARK  146  A    between atoms: _370  and  _371
REMARK  147  A    between atoms: _371  and  _372
REMARK  148  A    between atoms: _372  and  _373
REMARK  149  A    between atoms: _382  and  _384
REMARK  150  A    between atoms: _384  and  _385
REMARK  151  A    between atoms: _384  and  _387
REMARK  152  A    between atoms: _387  and  _388
REMARK  153  A    between atoms: _391  and  _393
REMARK  154  A    between atoms: _393  and  _394
REMARK  155  A    between atoms: _393  and  _396
REMARK  156  A    between atoms: _396  and  _397
REMARK  157  A    between atoms: _400  and  _402
REMARK  158  A    between atoms: _402  and  _403
REMARK  159  A    between atoms: _402  and  _405
REMARK  160  A    between atoms: _405  and  _406
REMARK  161  A    between atoms: _409  and  _411
REMARK  162  A    between atoms: _411  and  _412
REMARK  163  A    between atoms: _411  and  _414
REMARK  164  A    between atoms: _414  and  _415
REMARK  165  A    between atoms: _420  and  _421
REMARK  166  A    between atoms: _423  and  _425
REMARK  167  A    between atoms: _425  and  _426
REMARK  168  A    between atoms: _425  and  _428
REMARK  169  A    between atoms: _428  and  _429
REMARK  170  A    between atoms: _432  and  _434
REMARK  171  A    between atoms: _434  and  _435
REMARK  172  A    between atoms: _434  and  _437
REMARK  173  A    between atoms: _437  and  _438
REMARK  174  A    between atoms: _438  and  _439
REMARK  175  A    between atoms: _444  and  _446
REMARK  176  A    between atoms: _446  and  _447
REMARK  177  A    between atoms: _446  and  _449
REMARK  178  A    between atoms: _449  and  _450
REMARK  179  A    between atoms: _450  and  _451
REMARK  180  A    between atoms: _451  and  _452
REMARK  181  A    between atoms: _461  and  _463
REMARK  182  A    between atoms: _463  and  _464
REMARK  183  A    between atoms: _463  and  _466
REMARK  184  A    between atoms: _466  and  _467
REMARK  185  A    between atoms: _472  and  _473
REMARK  186  A    between atoms: _475  and  _477
REMARK  187  A    between atoms: _477  and  _478
REMARK  188  A    between atoms: _480  and  _482
REMARK  189  A    between atoms: _482  and  _483
REMARK  190  A    between atoms: _482  and  _485
REMARK  191  A    between atoms: _485  and  _486
REMARK  192  A    between atoms: _491  and  _492
REMARK  193  A    between atoms: _494  and  _496
REMARK  194  A    between atoms: _496  and  _497
REMARK  195  A    between atoms: _496  and  _499
REMARK  196  A    between atoms: _499  and  _500
REMARK  197  A    between atoms: _500  and  _501
REMARK  198  A    between atoms: _504  and  _506
REMARK  199  A    between atoms: _506  and  _507
REMARK  200  A    between atoms: _506  and  _509
REMARK  201  A    between atoms: _509  and  _510
REMARK  202  A    between atoms: _516  and  _518
REMARK  203  A    between atoms: _518  and  _519
REMARK  204  A    between atoms: _522  and  _524
REMARK  205  A    between atoms: _524  and  _525
REMARK  206  A    between atoms: _524  and  _527
REMARK  207  A    between atoms: _527  and  _528
REMARK  208  A    between atoms: _533  and  _534
REMARK  209  A    between atoms: _536  and  _538
REMARK  210  A    between atoms: _538  and  _539
REMARK  211  A    between atoms: _538  and  _541
REMARK  212  A    between atoms: _541  and  _542
REMARK  213  A    between atoms: _547  and  _548
REMARK  214  A    between atoms: _550  and  _552
REMARK  215  A    between atoms: _552  and  _553
REMARK  216  A    between atoms: _552  and  _555
REMARK  217  A    between atoms: _555  and  _556
REMARK  218  A    between atoms: _559  and  _561
REMARK  219  A    between atoms: _561  and  _562
REMARK  220  A    between atoms: _561  and  _564
REMARK  221  A    between atoms: _564  and  _565
REMARK  222  A    between atoms: _575  and  _577
REMARK  223  A    between atoms: _577  and  _578
REMARK  224  A    between atoms: _581  and  _583
REMARK  225  A    between atoms: _583  and  _584
REMARK  226  A    between atoms: _587  and  _589
REMARK  227  A    between atoms: _589  and  _590
REMARK  228  A    between atoms: _589  and  _592
REMARK  229  A    between atoms: _592  and  _593
REMARK  230  A    between atoms: _593  and  _594
REMARK  231  A    between atoms: _599  and  _601
REMARK  232  A    between atoms: _601  and  _602
REMARK  233  A    between atoms: _601  and  _604
REMARK  234  A    between atoms: _604  and  _605
REMARK  235  A    between atoms: _608  and  _610
REMARK  236  A    between atoms: _610  and  _611
REMARK  237  A    between atoms: _610  and  _613
REMARK  238  A    between atoms: _613  and  _614
REMARK  239  A    between atoms: _617  and  _619
REMARK  240  A    between atoms: _619  and  _620
REMARK  241  A    between atoms: _619  and  _622
REMARK  242  A    between atoms: _622  and  _623
REMARK  243  A    between atoms: _623  and  _624
REMARK  244  A    between atoms: _624  and  _625
REMARK  245  A    between atoms: _634  and  _636
REMARK  246  A    between atoms: _636  and  _637
REMARK  247  A    between atoms: _636  and  _639
REMARK  248  A    between atoms: _639  and  _640
REMARK  249  A    between atoms: _640  and  _641
REMARK  250  A    between atoms: _641  and  _642
REMARK  251  A    between atoms: _651  and  _653
REMARK  252  A    between atoms: _653  and  _654
REMARK  253  A    between atoms: _653  and  _656
REMARK  254  A    between atoms: _656  and  _657
REMARK  255  A    between atoms: _657  and  _658
REMARK  256  A    between atoms: _658  and  _659
REMARK  257  A    between atoms: _659  and  _660
REMARK  258  A    between atoms: _664  and  _666
REMARK  259  A    between atoms: _666  and  _667
REMARK  260  A    between atoms: _666  and  _669
REMARK  261  A    between atoms: _669  and  _670
REMARK  262  A    between atoms: _680  and  _682
REMARK  263  A    between atoms: _682  and  _683
REMARK  264  A    between atoms: _682  and  _685
REMARK  265  A    between atoms: _685  and  _686
REMARK  266  A    between atoms: _686  and  _687
REMARK  267  A    between atoms: _690  and  _692
REMARK  268  A    between atoms: _692  and  _693
REMARK  269  A    between atoms: _692  and  _695
REMARK  270  A    between atoms: _695  and  _696
REMARK  271  A    between atoms: _696  and  _697
REMARK  272  A    between atoms: _702  and  _704
REMARK  273  A    between atoms: _704  and  _705
REMARK  274  A    between atoms: _708  and  _710
REMARK  275  A    between atoms: _710  and  _711
REMARK  276  A    between atoms: _713  and  _715
REMARK  277  A    between atoms: _715  and  _716
REMARK  278  A    between atoms: _719  and  _721
REMARK  279  A    between atoms: _721  and  _722
REMARK  280  A    between atoms: _725  and  _727
REMARK  281  A    between atoms: _727  and  _728
REMARK  282  A    between atoms: _727  and  _730
REMARK  283  A    between atoms: _730  and  _731
REMARK  284  A    between atoms: _731  and  _732
REMARK  285  A    between atoms: _735  and  _737
REMARK  286  A    between atoms: _737  and  _738
REMARK  287  A    between atoms: _737  and  _740
REMARK  288  A    between atoms: _740  and  _741
REMARK  289  A    between atoms: _746  and  _747
REMARK  290  A    between atoms: _749  and  _751
REMARK  291  A    between atoms: _751  and  _752
REMARK  292  A    between atoms: _751  and  _754
REMARK  293  A    between atoms: _754  and  _755
REMARK  294  A    between atoms: _760  and  _761
REMARK  295  A    between atoms: _763  and  _765
REMARK  296  A    between atoms: _765  and  _766
REMARK  297  A    between atoms: _765  and  _768
REMARK  298  A    between atoms: _768  and  _769
REMARK  299  A    between atoms: _769  and  _770
REMARK  300  A    between atoms: _770  and  _771
REMARK  301  A    between atoms: _780  and  _782
REMARK  302  A    between atoms: _782  and  _783
REMARK  303  A    between atoms: _786  and  _788
REMARK  304  A    between atoms: _788  and  _789
REMARK  305  A    between atoms: _788  and  _791
REMARK  306  A    between atoms: _791  and  _792
REMARK  307  A    between atoms: _797  and  _798
REMARK  308  A    between atoms: _800  and  _802
REMARK  309  A    between atoms: _802  and  _803
REMARK  310  A    between atoms: _802  and  _805
REMARK  311  A    between atoms: _805  and  _806
REMARK  312  A    between atoms: _809  and  _811
REMARK  313  A    between atoms: _811  and  _812
REMARK  314  A    between atoms: _811  and  _814
REMARK  315  A    between atoms: _814  and  _815
REMARK  316  A    between atoms: _815  and  _816
REMARK  317  A    between atoms: _819  and  _821
REMARK  318  A    between atoms: _821  and  _822
REMARK  319  A    between atoms: _821  and  _824
REMARK  320  A    between atoms: _826  and  _828
REMARK  321  A    between atoms: _828  and  _829
REMARK  322  A    between atoms: _828  and  _831
REMARK  323  A    between atoms: _834  and  _836
REMARK  324  A    between atoms: _836  and  _837
REMARK  325  A    between atoms: _836  and  _839
REMARK  326  A    between atoms: _839  and  _840
REMARK  327  A    between atoms: _840  and  _841
REMARK  328  A    between atoms: _844  and  _846
REMARK  329  A    between atoms: _846  and  _847
REMARK  330  A    between atoms: _846  and  _849
REMARK  331  A    between atoms: _849  and  _850
REMARK  332  A    between atoms: _860  and  _862
REMARK  333  A    between atoms: _862  and  _863
REMARK  334  A    between atoms: _862  and  _865
REMARK  335  A    between atoms: _865  and  _866
REMARK  336  A    between atoms: _869  and  _871
REMARK  337  A    between atoms: _871  and  _872
REMARK  338  A    between atoms: _871  and  _874
REMARK  339  A    between atoms: _874  and  _875
REMARK  340  A    between atoms: _875  and  _876
REMARK  341  A    between atoms: _876  and  _877
REMARK  342  A    between atoms: _886  and  _888
REMARK  343  A    between atoms: _888  and  _889
REMARK  344  A    between atoms: _888  and  _891
REMARK  345  A    between atoms: _891  and  _892
REMARK  346  A    between atoms: _897  and  _898
REMARK                            x       y       z     vdW  Elec       q    Type
REMARK                         _______ _______ _______ _____ _____    ______ ____
ROOT
ATOM      1  O   HOH     1      -0.151 -20.003 -15.252  0.00  0.00    +0.000 OA
ENDROOT
TORSDOF 0
REMARK  Name = ../refined-set-2016/3ery/3ery_pocket.pdb
REMARK  346 active torsions:
REMARK  status: ('A' for Active; 'I' for Inactive)
REMARK    1  A    between atoms: _1  and  _3
REMARK    2  A    between atoms: _3  and  _4
REMARK    3  A    between atoms: _3  and  _6
REMARK    4  A    between atoms: _6  and  _7
REMARK    5  A    between atoms: _7  and  _8
REMARK    6  A    between atoms: _10  and  _12
REMARK    7  A    between atoms: _12  and  _13
REMARK    8  A    between atoms: _12  and  _15
REMARK    9  A    between atoms: _15  and  _16
REMARK   10  A    between atoms: _16  and  _17
REMARK   11  A    between atoms: _17  and  _18
REMARK   12  A    between atoms: _27  and  _29
REMARK   13  A    between atoms: _29  and  _30
REMARK   14  A    between atoms: _29  and  _32
REMARK   15  A    between atoms: _32  and  _33
REMARK   16  A    between atoms: _38  and  _39
REMARK   17  A    between atoms: _41  and  _43
REMARK   18  A    between atoms: _43  and  _44
REMARK   19  A    between atoms: _43  and  _46
REMARK   20  A    between atoms: _46  and  _47
REMARK   21  A    between atoms: _52  and  _53
REMARK   22  A    between atoms: _55  and  _57
REMARK   23  A    between atoms: _57  and  _58
REMARK   24  A    between atoms: _57  and  _60
REMARK   25  A    between atoms: _60  and  _61
REMARK   26  A    between atoms: _61  and  _62
REMARK   27  A    between atoms: _65  and  _67
REMARK   28  A    between atoms: _67  and  _68
REMARK   29  A    between atoms: _67  and  _70
REMARK   30  A    between atoms: _70  and  _71
REMARK   31  A    between atoms: _76  and  _77
REMARK   32  A    between atoms: _79  and  _81
REMARK   33  A    between atoms: _81  and  _82
REMARK   34  A    between atoms: _81  and  _84
REMARK   35  A    between atoms: _84  and  _85
REMARK   36  A    between atoms: _87  and  _89
REMARK   37  A    between atoms: _89  and  _90
REMARK   38  A    between atoms: _89  and  _92
REMARK   39  A    between atoms: _95  and  _97
REMARK   40  A    between atoms: _97  and  _98
REMARK   41  A    between atoms: _100  and  _102
REMARK   42  A    between atoms: _102  and  _103
REMARK   43  A    between atoms: _102  and  _105
REMARK   44  A    between atoms: _105  and  _106
REMARK   45  A    between atoms: _112  and  _114
REMARK   46  A    between atoms: _114  and  _115
REMARK   47  A    between atoms: _114  and  _117
REMARK   48  A    between atoms: _120  and  _122
REMARK   49  A    between atoms: _122  and  _123
REMARK   50  A    between atoms: _122  and  _125
REMARK   51  A    between atoms: _125  and  _126
REMARK   52  A    between atoms: _132  and  _134
REMARK   53  A    between atoms: _134  and  _135
REMARK   54  A    between atoms: _134  and  _137
REMARK   55  A    between atoms: _137  and  _138
REMARK   56  A    between atoms: _143  and  _144
REMARK   57  A    between atoms: _146  and  _148
REMARK   58  A    between atoms: _148  and  _149
REMARK   59  A    between atoms: _148  and  _151
REMARK   60  A    between atoms: _151  and  _152
REMARK   61  A    between atoms: _152  and  _153
REMARK   62  A    between atoms: _156  and  _158
REMARK   63  A    between atoms: _158  and  _159
REMARK   64  A    between atoms: _158  and  _161
REMARK   65  A    between atoms: _161  and  _162
REMARK   66  A    between atoms: _162  and  _163
REMARK   67  A    between atoms: _166  and  _168
REMARK   68  A    between atoms: _168  and  _169
REMARK   69  A    between atoms: _168  and  _171
REMARK   70  A    between atoms: _171  and  _172
REMARK   71  A    between atoms: _177  and  _178
REMARK   72  A    between atoms: _180  and  _182
REMARK   73  A    between atoms: _182  and  _183
REMARK   74  A    between atoms: _182  and  _185
REMARK   75  A    between atoms: _185  and  _186
REMARK   76  A    between atoms: _196  and  _198
REMARK   77  A    between atoms: _198  and  _199
REMARK   78  A    between atoms: _198  and  _201
REMARK   79  A    between atoms: _201  and  _202
REMARK   80  A    between atoms: _202  and  _203
REMARK   81  A    between atoms: _206  and  _208
REMARK   82  A    between atoms: _208  and  _209
REMARK   83  A    between atoms: _208  and  _211
REMARK   84  A    between atoms: _211  and  _212
REMARK   85  A    between atoms: _212  and  _213
REMARK   86  A    between atoms: _213  and  _214
REMARK   87  A    between atoms: _223  and  _225
REMARK   88  A    between atoms: _225  and  _226
REMARK   89  A    between atoms: _225  and  _228
REMARK   90  A    between atoms: _228  and  _229
REMARK   91  A    between atoms: _232  and  _234
REMARK   92  A    between atoms: _234  and  _235
REMARK   93  A    between atoms: _234  and  _237
REMARK   94  A    between atoms: _237  and  _238
REMARK   95  A    between atoms: _241  and  _243
REMARK   96  A    between atoms: _243  and  _244
REMARK   97  A    between atoms: _243  and  _246
REMARK   98  A    between atoms: _246  and  _247
REMARK   99  A    between atoms: _247  and  _248
REMARK  100  A    between atoms: _253  and  _255
REMARK  101  A    between atoms: _255  and  _256
REMARK  102  A    between atoms: _255  and  _258
REMARK  103  A    between atoms: _261  and  _263
REMARK  104  A    between atoms: _263  and  _264
REMARK  105  A    between atoms: _267  and  _269
REMARK  106  A    between atoms: _269  and  _270
REMARK  107  A    between atoms: _269  and  _272
REMARK  108  A    between atoms: _272  and  _273
REMARK  109  A    between atoms: _273  and  _274
REMARK  110  A    between atoms: _274  and  _275
REMARK  111  A    between atoms: _275  and  _276
REMARK  112  A    between atoms: _280  and  _282
REMARK  113  A    between atoms: _282  and  _283
REMARK  114  A    between atoms: _285  and  _287
REMARK  115  A    between atoms: _287  and  _288
REMARK  116  A    between atoms: _287  and  _290
REMARK  117  A    between atoms: _290  and  _291
REMARK  118  A    between atoms: _291  and  _292
REMARK  119  A    between atoms: _297  and  _299
REMARK  120  A    between atoms: _299  and  _300
REMARK  121  A    between atoms: _299  and  _302
REMARK  122  A    between atoms: _302  and  _303
REMARK  123  A    between atoms: _303  and  _304
REMARK  124  A    between atoms: _309  and  _311
REMARK  125  A    between atoms: _311  and  _312
REMARK  126  A    between atoms: _311  and  _314
REMARK  127  A    between atoms: _314  and  _315
REMARK  128  A    between atoms: _325  and  _327
REMARK  129  A    between atoms: _327  and  _328
REMARK  130  A    between atoms: _327  and  _330
REMARK  131  A    between atoms: _330  and  _331
REMARK  132  A    between atoms: _337  and  _339
REMARK  133  A    between atoms: _339  and  _340
REMARK  134  A    between atoms: _339  and  _342
REMARK  135  A    between atoms: _345  and  _347
REMARK  136  A    between atoms: _347  and  _348
REMARK  137  A    between atoms: _347  and  _350
REMARK  138  A    between atoms: _350  and  _351
REMARK  139  A    between atoms: _356  and  _358
REMARK  140  A    between atoms: _358  and  _359
REMARK  141  A    between atoms: _358  and  _361
REMARK  142  A    between atoms: _361  and  _362
REMARK  143  A    between atoms: _365  and  _367
REMARK  144  A    between atoms: _367  and  _368
REMARK  145  A    between atoms: _367  and  _370
REMARK  146  A    between atoms: _370  and  _371
REMARK  147  A    between atoms: _371  and  _372
REMARK  148  A    between atoms: _372  and  _373
REMARK  149  A    between atoms: _382  and  _384
REMARK  150  A    between atoms: _384  and  _385
REMARK  151  A    between atoms: _384  and  _387
REMARK  152  A    between atoms: _387  and  _388
REMARK  153  A    between atoms: _391  and  _393
REMARK  154  A    between atoms: _393  and  _394
REMARK  155  A    between atoms: _393  and  _396
REMARK  156  A    between atoms: _396  and  _397
REMARK  157  A    between atoms: _400  and  _402
REMARK  158  A    between atoms: _402  and  _403
REMARK  159  A    between atoms: _402  and  _405
REMARK  160  A    between atoms: _405  and  _406
REMARK  161  A    between atoms: _409  and  _411
REMARK  162  A    between atoms: _411  and  _412
REMARK  163  A    between atoms: _411  and  _414
REMARK  164  A    between atoms: _414  and  _415
REMARK  165  A    between atoms: _420  and  _421
REMARK  166  A    between atoms: _423  and  _425
REMARK  167  A    between atoms: _425  and  _426
REMARK  168  A    between atoms: _425  and  _428
REMARK  169  A    between atoms: _428  and  _429
REMARK  170  A    between atoms: _432  and  _434
REMARK  171  A    between atoms: _434  and  _435
REMARK  172  A    between atoms: _434  and  _437
REMARK  173  A    between atoms: _437  and  _438
REMARK  174  A    between atoms: _438  and  _439
REMARK  175  A    between atoms: _444  and  _446
REMARK  176  A    between atoms: _446  and  _447
REMARK  177  A    between atoms: _446  and  _449
REMARK  178  A    between atoms: _449  and  _450
REMARK  179  A    between atoms: _450  and  _451
REMARK  180  A    between atoms: _451  and  _452
REMARK  181  A    between atoms: _461  and  _463
REMARK  182  A    between atoms: _463  and  _464
REMARK  183  A    between atoms: _463  and  _466
REMARK  184  A    between atoms: _466  and  _467
REMARK  185  A    between atoms: _472  and  _473
REMARK  186  A    between atoms: _475  and  _477
REMARK  187  A    between atoms: _477  and  _478
REMARK  188  A    between atoms: _480  and  _482
REMARK  189  A    between atoms: _482  and  _483
REMARK  190  A    between atoms: _482  and  _485
REMARK  191  A    between atoms: _485  and  _486
REMARK  192  A    between atoms: _491  and  _492
REMARK  193  A    between atoms: _494  and  _496
REMARK  194  A    between atoms: _496  and  _497
REMARK  195  A    between atoms: _496  and  _499
REMARK  196  A    between atoms: _499  and  _500
REMARK  197  A    between atoms: _500  and  _501
REMARK  198  A    between atoms: _504  and  _506
REMARK  199  A    between atoms: _506  and  _507
REMARK  200  A    between atoms: _506  and  _509
REMARK  201  A    between atoms: _509  and  _510
REMARK  202  A    between atoms: _516  and  _518
REMARK  203  A    between atoms: _518  and  _519
REMARK  204  A    between atoms: _522  and  _524
REMARK  205  A    between atoms: _524  and  _525
REMARK  206  A    between atoms: _524  and  _527
REMARK  207  A    between atoms: _527  and  _528
REMARK  208  A    between atoms: _533  and  _534
REMARK  209  A    between atoms: _536  and  _538
REMARK  210  A    between atoms: _538  and  _539
REMARK  211  A    between atoms: _538  and  _541
REMARK  212  A    between atoms: _541  and  _542
REMARK  213  A    between atoms: _547  and  _548
REMARK  214  A    between atoms: _550  and  _552
REMARK  215  A    between atoms: _552  and  _553
REMARK  216  A    between atoms: _552  and  _555
REMARK  217  A    between atoms: _555  and  _556
REMARK  218  A    between atoms: _559  and  _561
REMARK  219  A    between atoms: _561  and  _562
REMARK  220  A    between atoms: _561  and  _564
REMARK  221  A    between atoms: _564  and  _565
REMARK  222  A    between atoms: _575  and  _577
REMARK  223  A    between atoms: _577  and  _578
REMARK  224  A    between atoms: _581  and  _583
REMARK  225  A    between atoms: _583  and  _584
REMARK  226  A    between atoms: _587  and  _589
REMARK  227  A    between atoms: _589  and  _590
REMARK  228  A    between atoms: _589  and  _592
REMARK  229  A    between atoms: _592  and  _593
REMARK  230  A    between atoms: _593  and  _594
REMARK  231  A    between atoms: _599  and  _601
REMARK  232  A    between atoms: _601  and  _602
REMARK  233  A    between atoms: _601  and  _604
REMARK  234  A    between atoms: _604  and  _605
REMARK  235  A    between atoms: _608  and  _610
REMARK  236  A    between atoms: _610  and  _611
REMARK  237  A    between atoms: _610  and  _613
REMARK  238  A    between atoms: _613  and  _614
REMARK  239  A    between atoms: _617  and  _619
REMARK  240  A    between atoms: _619  and  _620
REMARK  241  A    between atoms: _619  and  _622
REMARK  242  A    between atoms: _622  and  _623
REMARK  243  A    between atoms: _623  and  _624
REMARK  244  A    between atoms: _624  and  _625
REMARK  245  A    between atoms: _634  and  _636
REMARK  246  A    between atoms: _636  and  _637
REMARK  247  A    between atoms: _636  and  _639
REMARK  248  A    between atoms: _639  and  _640
REMARK  249  A    between atoms: _640  and  _641
REMARK  250  A    between atoms: _641  and  _642
REMARK  251  A    between atoms: _651  and  _653
REMARK  252  A    between atoms: _653  and  _654
REMARK  253  A    between atoms: _653  and  _656
REMARK  254  A    between atoms: _656  and  _657
REMARK  255  A    between atoms: _657  and  _658
REMARK  256  A    between atoms: _658  and  _659
REMARK  257  A    between atoms: _659  and  _660
REMARK  258  A    between atoms: _664  and  _666
REMARK  259  A    between atoms: _666  and  _667
REMARK  260  A    between atoms: _666  and  _669
REMARK  261  A    between atoms: _669  and  _670
REMARK  262  A    between atoms: _680  and  _682
REMARK  263  A    between atoms: _682  and  _683
REMARK  264  A    between atoms: _682  and  _685
REMARK  265  A    between atoms: _685  and  _686
REMARK  266  A    between atoms: _686  and  _687
REMARK  267  A    between atoms: _690  and  _692
REMARK  268  A    between atoms: _692  and  _693
REMARK  269  A    between atoms: _692  and  _695
REMARK  270  A    between atoms: _695  and  _696
REMARK  271  A    between atoms: _696  and  _697
REMARK  272  A    between atoms: _702  and  _704
REMARK  273  A    between atoms: _704  and  _705
REMARK  274  A    between atoms: _708  and  _710
REMARK  275  A    between atoms: _710  and  _711
REMARK  276  A    between atoms: _713  and  _715
REMARK  277  A    between atoms: _715  and  _716
REMARK  278  A    between atoms: _719  and  _721
REMARK  279  A    between atoms: _721  and  _722
REMARK  280  A    between atoms: _725  and  _727
REMARK  281  A    between atoms: _727  and  _728
REMARK  282  A    between atoms: _727  and  _730
REMARK  283  A    between atoms: _730  and  _731
REMARK  284  A    between atoms: _731  and  _732
REMARK  285  A    between atoms: _735  and  _737
REMARK  286  A    between atoms: _737  and  _738
REMARK  287  A    between atoms: _737  and  _740
REMARK  288  A    between atoms: _740  and  _741
REMARK  289  A    between atoms: _746  and  _747
REMARK  290  A    between atoms: _749  and  _751
REMARK  291  A    between atoms: _751  and  _752
REMARK  292  A    between atoms: _751  and  _754
REMARK  293  A    between atoms: _754  and  _755
REMARK  294  A    between atoms: _760  and  _761
REMARK  295  A    between atoms: _763  and  _765
REMARK  296  A    between atoms: _765  and  _766
REMARK  297  A    between atoms: _765  and  _768
REMARK  298  A    between atoms: _768  and  _769
REMARK  299  A    between atoms: _769  and  _770
REMARK  300  A    between atoms: _770  and  _771
REMARK  301  A    between atoms: _780  and  _782
REMARK  302  A    between atoms: _782  and  _783
REMARK  303  A    between atoms: _786  and  _788
REMARK  304  A    between atoms: _788  and  _789
REMARK  305  A    between atoms: _788  and  _791
REMARK  306  A    between atoms: _791  and  _792
REMARK  307  A    between atoms: _797  and  _798
REMARK  308  A    between atoms: _800  and  _802
REMARK  309  A    between atoms: _802  and  _803
REMARK  310  A    between atoms: _802  and  _805
REMARK  311  A    between atoms: _805  and  _806
REMARK  312  A    between atoms: _809  and  _811
REMARK  313  A    between atoms: _811  and  _812
REMARK  314  A    between atoms: _811  and  _814
REMARK  315  A    between atoms: _814  and  _815
REMARK  316  A    between atoms: _815  and  _816
REMARK  317  A    between atoms: _819  and  _821
REMARK  318  A    between atoms: _821  and  _822
REMARK  319  A    between atoms: _821  and  _824
REMARK  320  A    between atoms: _826  and  _828
REMARK  321  A    between atoms: _828  and  _829
REMARK  322  A    between atoms: _828  and  _831
REMARK  323  A    between atoms: _834  and  _836
REMARK  324  A    between atoms: _836  and  _837
REMARK  325  A    between atoms: _836  and  _839
REMARK  326  A    between atoms: _839  and  _840
REMARK  327  A    between atoms: _840  and  _841
REMARK  328  A    between atoms: _844  and  _846
REMARK  329  A    between atoms: _846  and  _847
REMARK  330  A    between atoms: _846  and  _849
REMARK  331  A    between atoms: _849  and  _850
REMARK  332  A    between atoms: _860  and  _862
REMARK  333  A    between atoms: _862  and  _863
REMARK  334  A    between atoms: _862  and  _865
REMARK  335  A    between atoms: _865  and  _866
REMARK  336  A    between atoms: _869  and  _871
REMARK  337  A    between atoms: _871  and  _872
REMARK  338  A    between atoms: _871  and  _874
REMARK  339  A    between atoms: _874  and  _875
REMARK  340  A    between atoms: _875  and  _876
REMARK  341  A    between atoms: _876  and  _877
REMARK  342  A    between atoms: _886  and  _888
REMARK  343  A    between atoms: _888  and  _889
REMARK  344  A    between atoms: _888  and  _891
REMARK  345  A    between atoms: _891  and  _892
REMARK  346  A    between atoms: _897  and  _898
REMARK                            x       y       z     vdW  Elec       q    Type
REMARK                         _______ _______ _______ _____ _____    ______ ____
ROOT
ATOM      1  O   HOH     1       6.102  -7.776  -6.720  0.00  0.00    +0.000 OA
ENDROOT
TORSDOF 0
REMARK  Name = ../refined-set-2016/3ery/3ery_pocket.pdb
REMARK  346 active torsions:
REMARK  status: ('A' for Active; 'I' for Inactive)
REMARK    1  A    between atoms: _1  and  _3
REMARK    2  A    between atoms: _3  and  _4
REMARK    3  A    between atoms: _3  and  _6
REMARK    4  A    between atoms: _6  and  _7
REMARK    5  A    between atoms: _7  and  _8
REMARK    6  A    between atoms: _10  and  _12
REMARK    7  A    between atoms: _12  and  _13
REMARK    8  A    between atoms: _12  and  _15
REMARK    9  A    between atoms: _15  and  _16
REMARK   10  A    between atoms: _16  and  _17
REMARK   11  A    between atoms: _17  and  _18
REMARK   12  A    between atoms: _27  and  _29
REMARK   13  A    between atoms: _29  and  _30
REMARK   14  A    between atoms: _29  and  _32
REMARK   15  A    between atoms: _32  and  _33
REMARK   16  A    between atoms: _38  and  _39
REMARK   17  A    between atoms: _41  and  _43
REMARK   18  A    between atoms: _43  and  _44
REMARK   19  A    between atoms: _43  and  _46
REMARK   20  A    between atoms: _46  and  _47
REMARK   21  A    between atoms: _52  and  _53
REMARK   22  A    between atoms: _55  and  _57
REMARK   23  A    between atoms: _57  and  _58
REMARK   24  A    between atoms: _57  and  _60
REMARK   25  A    between atoms: _60  and  _61
REMARK   26  A    between atoms: _61  and  _62
REMARK   27  A    between atoms: _65  and  _67
REMARK   28  A    between atoms: _67  and  _68
REMARK   29  A    between atoms: _67  and  _70
REMARK   30  A    between atoms: _70  and  _71
REMARK   31  A    between atoms: _76  and  _77
REMARK   32  A    between atoms: _79  and  _81
REMARK   33  A    between atoms: _81  and  _82
REMARK   34  A    between atoms: _81  and  _84
REMARK   35  A    between atoms: _84  and  _85
REMARK   36  A    between atoms: _87  and  _89
REMARK   37  A    between atoms: _89  and  _90
REMARK   38  A    between atoms: _89  and  _92
REMARK   39  A    between atoms: _95  and  _97
REMARK   40  A    between atoms: _97  and  _98
REMARK   41  A    between atoms: _100  and  _102
REMARK   42  A    between atoms: _102  and  _103
REMARK   43  A    between atoms: _102  and  _105
REMARK   44  A    between atoms: _105  and  _106
REMARK   45  A    between atoms: _112  and  _114
REMARK   46  A    between atoms: _114  and  _115
REMARK   47  A    between atoms: _114  and  _117
REMARK   48  A    between atoms: _120  and  _122
REMARK   49  A    between atoms: _122  and  _123
REMARK   50  A    between atoms: _122  and  _125
REMARK   51  A    between atoms: _125  and  _126
REMARK   52  A    between atoms: _132  and  _134
REMARK   53  A    between atoms: _134  and  _135
REMARK   54  A    between atoms: _134  and  _137
REMARK   55  A    between atoms: _137  and  _138
REMARK   56  A    between atoms: _143  and  _144
REMARK   57  A    between atoms: _146  and  _148
REMARK   58  A    between atoms: _148  and  _149
REMARK   59  A    between atoms: _148  and  _151
REMARK   60  A    between atoms: _151  and  _152
REMARK   61  A    between atoms: _152  and  _153
REMARK   62  A    between atoms: _156  and  _158
REMARK   63  A    between atoms: _158  and  _159
REMARK   64  A    between atoms: _158  and  _161
REMARK   65  A    between atoms: _161  and  _162
REMARK   66  A    between atoms: _162  and  _163
REMARK   67  A    between atoms: _166  and  _168
REMARK   68  A    between atoms: _168  and  _169
REMARK   69  A    between atoms: _168  and  _171
REMARK   70  A    between atoms: _171  and  _172
REMARK   71  A    between atoms: _177  and  _178
REMARK   72  A    between atoms: _180  and  _182
REMARK   73  A    between atoms: _182  and  _183
REMARK   74  A    between atoms: _182  and  _185
REMARK   75  A    between atoms: _185  and  _186
REMARK   76  A    between atoms: _196  and  _198
REMARK   77  A    between atoms: _198  and  _199
REMARK   78  A    between atoms: _198  and  _201
REMARK   79  A    between atoms: _201  and  _202
REMARK   80  A    between atoms: _202  and  _203
REMARK   81  A    between atoms: _206  and  _208
REMARK   82  A    between atoms: _208  and  _209
REMARK   83  A    between atoms: _208  and  _211
REMARK   84  A    between atoms: _211  and  _212
REMARK   85  A    between atoms: _212  and  _213
REMARK   86  A    between atoms: _213  and  _214
REMARK   87  A    between atoms: _223  and  _225
REMARK   88  A    between atoms: _225  and  _226
REMARK   89  A    between atoms: _225  and  _228
REMARK   90  A    between atoms: _228  and  _229
REMARK   91  A    between atoms: _232  and  _234
REMARK   92  A    between atoms: _234  and  _235
REMARK   93  A    between atoms: _234  and  _237
REMARK   94  A    between atoms: _237  and  _238
REMARK   95  A    between atoms: _241  and  _243
REMARK   96  A    between atoms: _243  and  _244
REMARK   97  A    between atoms: _243  and  _246
REMARK   98  A    between atoms: _246  and  _247
REMARK   99  A    between atoms: _247  and  _248
REMARK  100  A    between atoms: _253  and  _255
REMARK  101  A    between atoms: _255  and  _256
REMARK  102  A    between atoms: _255  and  _258
REMARK  103  A    between atoms: _261  and  _263
REMARK  104  A    between atoms: _263  and  _264
REMARK  105  A    between atoms: _267  and  _269
REMARK  106  A    between atoms: _269  and  _270
REMARK  107  A    between atoms: _269  and  _272
REMARK  108  A    between atoms: _272  and  _273
REMARK  109  A    between atoms: _273  and  _274
REMARK  110  A    between atoms: _274  and  _275
REMARK  111  A    between atoms: _275  and  _276
REMARK  112  A    between atoms: _280  and  _282
REMARK  113  A    between atoms: _282  and  _283
REMARK  114  A    between atoms: _285  and  _287
REMARK  115  A    between atoms: _287  and  _288
REMARK  116  A    between atoms: _287  and  _290
REMARK  117  A    between atoms: _290  and  _291
REMARK  118  A    between atoms: _291  and  _292
REMARK  119  A    between atoms: _297  and  _299
REMARK  120  A    between atoms: _299  and  _300
REMARK  121  A    between atoms: _299  and  _302
REMARK  122  A    between atoms: _302  and  _303
REMARK  123  A    between atoms: _303  and  _304
REMARK  124  A    between atoms: _309  and  _311
REMARK  125  A    between atoms: _311  and  _312
REMARK  126  A    between atoms: _311  and  _314
REMARK  127  A    between atoms: _314  and  _315
REMARK  128  A    between atoms: _325  and  _327
REMARK  129  A    between atoms: _327  and  _328
REMARK  130  A    between atoms: _327  and  _330
REMARK  131  A    between atoms: _330  and  _331
REMARK  132  A    between atoms: _337  and  _339
REMARK  133  A    between atoms: _339  and  _340
REMARK  134  A    between atoms: _339  and  _342
REMARK  135  A    between atoms: _345  and  _347
REMARK  136  A    between atoms: _347  and  _348
REMARK  137  A    between atoms: _347  and  _350
REMARK  138  A    between atoms: _350  and  _351
REMARK  139  A    between atoms: _356  and  _358
REMARK  140  A    between atoms: _358  and  _359
REMARK  141  A    between atoms: _358  and  _361
REMARK  142  A    between atoms: _361  and  _362
REMARK  143  A    between atoms: _365  and  _367
REMARK  144  A    between atoms: _367  and  _368
REMARK  145  A    between atoms: _367  and  _370
REMARK  146  A    between atoms: _370  and  _371
REMARK  147  A    between atoms: _371  and  _372
REMARK  148  A    between atoms: _372  and  _373
REMARK  149  A    between atoms: _382  and  _384
REMARK  150  A    between atoms: _384  and  _385
REMARK  151  A    between atoms: _384  and  _387
REMARK  152  A    between atoms: _387  and  _388
REMARK  153  A    between atoms: _391  and  _393
REMARK  154  A    between atoms: _393  and  _394
REMARK  155  A    between atoms: _393  and  _396
REMARK  156  A    between atoms: _396  and  _397
REMARK  157  A    between atoms: _400  and  _402
REMARK  158  A    between atoms: _402  and  _403
REMARK  159  A    between atoms: _402  and  _405
REMARK  160  A    between atoms: _405  and  _406
REMARK  161  A    between atoms: _409  and  _411
REMARK  162  A    between atoms: _411  and  _412
REMARK  163  A    between atoms: _411  and  _414
REMARK  164  A    between atoms: _414  and  _415
REMARK  165  A    between atoms: _420  and  _421
REMARK  166  A    between atoms: _423  and  _425
REMARK  167  A    between atoms: _425  and  _426
REMARK  168  A    between atoms: _425  and  _428
REMARK  169  A    between atoms: _428  and  _429
REMARK  170  A    between atoms: _432  and  _434
REMARK  171  A    between atoms: _434  and  _435
REMARK  172  A    between atoms: _434  and  _437
REMARK  173  A    between atoms: _437  and  _438
REMARK  174  A    between atoms: _438  and  _439
REMARK  175  A    between atoms: _444  and  _446
REMARK  176  A    between atoms: _446  and  _447
REMARK  177  A    between atoms: _446  and  _449
REMARK  178  A    between atoms: _449  and  _450
REMARK  179  A    between atoms: _450  and  _451
REMARK  180  A    between atoms: _451  and  _452
REMARK  181  A    between atoms: _461  and  _463
REMARK  182  A    between atoms: _463  and  _464
REMARK  183  A    between atoms: _463  and  _466
REMARK  184  A    between atoms: _466  and  _467
REMARK  185  A    between atoms: _472  and  _473
REMARK  186  A    between atoms: _475  and  _477
REMARK  187  A    between atoms: _477  and  _478
REMARK  188  A    between atoms: _480  and  _482
REMARK  189  A    between atoms: _482  and  _483
REMARK  190  A    between atoms: _482  and  _485
REMARK  191  A    between atoms: _485  and  _486
REMARK  192  A    between atoms: _491  and  _492
REMARK  193  A    between atoms: _494  and  _496
REMARK  194  A    between atoms: _496  and  _497
REMARK  195  A    between atoms: _496  and  _499
REMARK  196  A    between atoms: _499  and  _500
REMARK  197  A    between atoms: _500  and  _501
REMARK  198  A    between atoms: _504  and  _506
REMARK  199  A    between atoms: _506  and  _507
REMARK  200  A    between atoms: _506  and  _509
REMARK  201  A    between atoms: _509  and  _510
REMARK  202  A    between atoms: _516  and  _518
REMARK  203  A    between atoms: _518  and  _519
REMARK  204  A    between atoms: _522  and  _524
REMARK  205  A    between atoms: _524  and  _525
REMARK  206  A    between atoms: _524  and  _527
REMARK  207  A    between atoms: _527  and  _528
REMARK  208  A    between atoms: _533  and  _534
REMARK  209  A    between atoms: _536  and  _538
REMARK  210  A    between atoms: _538  and  _539
REMARK  211  A    between atoms: _538  and  _541
REMARK  212  A    between atoms: _541  and  _542
REMARK  213  A    between atoms: _547  and  _548
REMARK  214  A    between atoms: _550  and  _552
REMARK  215  A    between atoms: _552  and  _553
REMARK  216  A    between atoms: _552  and  _555
REMARK  217  A    between atoms: _555  and  _556
REMARK  218  A    between atoms: _559  and  _561
REMARK  219  A    between atoms: _561  and  _562
REMARK  220  A    between atoms: _561  and  _564
REMARK  221  A    between atoms: _564  and  _565
REMARK  222  A    between atoms: _575  and  _577
REMARK  223  A    between atoms: _577  and  _578
REMARK  224  A    between atoms: _581  and  _583
REMARK  225  A    between atoms: _583  and  _584
REMARK  226  A    between atoms: _587  and  _589
REMARK  227  A    between atoms: _589  and  _590
REMARK  228  A    between atoms: _589  and  _592
REMARK  229  A    between atoms: _592  and  _593
REMARK  230  A    between atoms: _593  and  _594
REMARK  231  A    between atoms: _599  and  _601
REMARK  232  A    between atoms: _601  and  _602
REMARK  233  A    between atoms: _601  and  _604
REMARK  234  A    between atoms: _604  and  _605
REMARK  235  A    between atoms: _608  and  _610
REMARK  236  A    between atoms: _610  and  _611
REMARK  237  A    between atoms: _610  and  _613
REMARK  238  A    between atoms: _613  and  _614
REMARK  239  A    between atoms: _617  and  _619
REMARK  240  A    between atoms: _619  and  _620
REMARK  241  A    between atoms: _619  and  _622
REMARK  242  A    between atoms: _622  and  _623
REMARK  243  A    between atoms: _623  and  _624
REMARK  244  A    between atoms: _624  and  _625
REMARK  245  A    between atoms: _634  and  _636
REMARK  246  A    between atoms: _636  and  _637
REMARK  247  A    between atoms: _636  and  _639
REMARK  248  A    between atoms: _639  and  _640
REMARK  249  A    between atoms: _640  and  _641
REMARK  250  A    between atoms: _641  and  _642
REMARK  251  A    between atoms: _651  and  _653
REMARK  252  A    between atoms: _653  and  _654
REMARK  253  A    between atoms: _653  and  _656
REMARK  254  A    between atoms: _656  and  _657
REMARK  255  A    between atoms: _657  and  _658
REMARK  256  A    between atoms: _658  and  _659
REMARK  257  A    between atoms: _659  and  _660
REMARK  258  A    between atoms: _664  and  _666
REMARK  259  A    between atoms: _666  and  _667
REMARK  260  A    between atoms: _666  and  _669
REMARK  261  A    between atoms: _669  and  _670
REMARK  262  A    between atoms: _680  and  _682
REMARK  263  A    between atoms: _682  and  _683
REMARK  264  A    between atoms: _682  and  _685
REMARK  265  A    between atoms: _685  and  _686
REMARK  266  A    between atoms: _686  and  _687
REMARK  267  A    between atoms: _690  and  _692
REMARK  268  A    between atoms: _692  and  _693
REMARK  269  A    between atoms: _692  and  _695
REMARK  270  A    between atoms: _695  and  _696
REMARK  271  A    between atoms: _696  and  _697
REMARK  272  A    between atoms: _702  and  _704
REMARK  273  A    between atoms: _704  and  _705
REMARK  274  A    between atoms: _708  and  _710
REMARK  275  A    between atoms: _710  and  _711
REMARK  276  A    between atoms: _713  and  _715
REMARK  277  A    between atoms: _715  and  _716
REMARK  278  A    between atoms: _719  and  _721
REMARK  279  A    between atoms: _721  and  _722
REMARK  280  A    between atoms: _725  and  _727
REMARK  281  A    between atoms: _727  and  _728
REMARK  282  A    between atoms: _727  and  _730
REMARK  283  A    between atoms: _730  and  _731
REMARK  284  A    between atoms: _731  and  _732
REMARK  285  A    between atoms: _735  and  _737
REMARK  286  A    between atoms: _737  and  _738
REMARK  287  A    between atoms: _737  and  _740
REMARK  288  A    between atoms: _740  and  _741
REMARK  289  A    between atoms: _746  and  _747
REMARK  290  A    between atoms: _749  and  _751
REMARK  291  A    between atoms: _751  and  _752
REMARK  292  A    between atoms: _751  and  _754
REMARK  293  A    between atoms: _754  and  _755
REMARK  294  A    between atoms: _760  and  _761
REMARK  295  A    between atoms: _763  and  _765
REMARK  296  A    between atoms: _765  and  _766
REMARK  297  A    between atoms: _765  and  _768
REMARK  298  A    between atoms: _768  and  _769
REMARK  299  A    between atoms: _769  and  _770
REMARK  300  A    between atoms: _770  and  _771
REMARK  301  A    between atoms: _780  and  _782
REMARK  302  A    between atoms: _782  and  _783
REMARK  303  A    between atoms: _786  and  _788
REMARK  304  A    between atoms: _788  and  _789
REMARK  305  A    between atoms: _788  and  _791
REMARK  306  A    between atoms: _791  and  _792
REMARK  307  A    between atoms: _797  and  _798
REMARK  308  A    between atoms: _800  and  _802
REMARK  309  A    between atoms: _802  and  _803
REMARK  310  A    between atoms: _802  and  _805
REMARK  311  A    between atoms: _805  and  _806
REMARK  312  A    between atoms: _809  and  _811
REMARK  313  A    between atoms: _811  and  _812
REMARK  314  A    between atoms: _811  and  _814
REMARK  315  A    between atoms: _814  and  _815
REMARK  316  A    between atoms: _815  and  _816
REMARK  317  A    between atoms: _819  and  _821
REMARK  318  A    between atoms: _821  and  _822
REMARK  319  A    between atoms: _821  and  _824
REMARK  320  A    between atoms: _826  and  _828
REMARK  321  A    between atoms: _828  and  _829
REMARK  322  A    between atoms: _828  and  _831
REMARK  323  A    between atoms: _834  and  _836
REMARK  324  A    between atoms: _836  and  _837
REMARK  325  A    between atoms: _836  and  _839
REMARK  326  A    between atoms: _839  and  _840
REMARK  327  A    between atoms: _840  and  _841
REMARK  328  A    between atoms: _844  and  _846
REMARK  329  A    between atoms: _846  and  _847
REMARK  330  A    between atoms: _846  and  _849
REMARK  331  A    between atoms: _849  and  _850
REMARK  332  A    between atoms: _860  and  _862
REMARK  333  A    between atoms: _862  and  _863
REMARK  334  A    between atoms: _862  and  _865
REMARK  335  A    between atoms: _865  and  _866
REMARK  336  A    between atoms: _869  and  _871
REMARK  337  A    between atoms: _871  and  _872
REMARK  338  A    between atoms: _871  and  _874
REMARK  339  A    between atoms: _874  and  _875
REMARK  340  A    between atoms: _875  and  _876
REMARK  341  A    between atoms: _876  and  _877
REMARK  342  A    between atoms: _886  and  _888
REMARK  343  A    between atoms: _888  and  _889
REMARK  344  A    between atoms: _888  and  _891
REMARK  345  A    between atoms: _891  and  _892
REMARK  346  A    between atoms: _897  and  _898
REMARK                            x       y       z     vdW  Elec       q    Type
REMARK                         _______ _______ _______ _____ _____    ______ ____
ROOT
ATOM      1  O   HOH     1       2.560 -13.327 -16.030  0.00  0.00    +0.000 OA
ENDROOT
TORSDOF 0
