REMARK  Name = ../refined-set-2016/2wgj/2wgj_pocket.pdb
REMARK  227 active torsions:
REMARK  status: ('A' for Active; 'I' for Inactive)
REMARK    1  A    between atoms: _1  and  _3
REMARK    2  A    between atoms: _3  and  _4
REMARK    3  A    between atoms: _3  and  _6
REMARK    4  A    between atoms: _9  and  _11
REMARK    5  A    between atoms: _11  and  _12
REMARK    6  A    between atoms: _11  and  _14
REMARK    7  A    between atoms: _14  and  _15
REMARK    8  A    between atoms: _18  and  _20
REMARK    9  A    between atoms: _20  and  _21
REMARK   10  A    between atoms: _23  and  _25
REMARK   11  A    between atoms: _25  and  _26
REMARK   12  A    between atoms: _25  and  _28
REMARK   13  A    between atoms: _28  and  _29
REMARK   14  A    between atoms: _29  and  _30
REMARK   15  A    between atoms: _30  and  _31
REMARK   16  A    between atoms: _40  and  _42
REMARK   17  A    between atoms: _42  and  _43
REMARK   18  A    between atoms: _45  and  _47
REMARK   19  A    between atoms: _47  and  _48
REMARK   20  A    between atoms: _50  and  _52
REMARK   21  A    between atoms: _52  and  _53
REMARK   22  A    between atoms: _52  and  _55
REMARK   23  A    between atoms: _57  and  _59
REMARK   24  A    between atoms: _59  and  _60
REMARK   25  A    between atoms: _59  and  _62
REMARK   26  A    between atoms: _65  and  _67
REMARK   27  A    between atoms: _67  and  _68
REMARK   28  A    between atoms: _67  and  _70
REMARK   29  A    between atoms: _70  and  _71
REMARK   30  A    between atoms: _76  and  _77
REMARK   31  A    between atoms: _79  and  _81
REMARK   32  A    between atoms: _81  and  _82
REMARK   33  A    between atoms: _81  and  _84
REMARK   34  A    between atoms: _84  and  _85
REMARK   35  A    between atoms: _90  and  _92
REMARK   36  A    between atoms: _92  and  _93
REMARK   37  A    between atoms: _92  and  _95
REMARK   38  A    between atoms: _95  and  _96
REMARK   39  A    between atoms: _101  and  _103
REMARK   40  A    between atoms: _103  and  _104
REMARK   41  A    between atoms: _103  and  _106
REMARK   42  A    between atoms: _108  and  _110
REMARK   43  A    between atoms: _110  and  _111
REMARK   44  A    between atoms: _114  and  _116
REMARK   45  A    between atoms: _116  and  _117
REMARK   46  A    between atoms: _116  and  _119
REMARK   47  A    between atoms: _122  and  _124
REMARK   48  A    between atoms: _124  and  _125
REMARK   49  A    between atoms: _124  and  _127
REMARK   50  A    between atoms: _127  and  _128
REMARK   51  A    between atoms: _128  and  _129
REMARK   52  A    between atoms: _129  and  _130
REMARK   53  A    between atoms: _130  and  _131
REMARK   54  A    between atoms: _135  and  _137
REMARK   55  A    between atoms: _137  and  _138
REMARK   56  A    between atoms: _137  and  _140
REMARK   57  A    between atoms: _140  and  _141
REMARK   58  A    between atoms: _143  and  _145
REMARK   59  A    between atoms: _145  and  _146
REMARK   60  A    between atoms: _145  and  _148
REMARK   61  A    between atoms: _148  and  _149
REMARK   62  A    between atoms: _149  and  _150
REMARK   63  A    between atoms: _152  and  _154
REMARK   64  A    between atoms: _154  and  _155
REMARK   65  A    between atoms: _154  and  _157
REMARK   66  A    between atoms: _157  and  _158
REMARK   67  A    between atoms: _161  and  _163
REMARK   68  A    between atoms: _163  and  _164
REMARK   69  A    between atoms: _163  and  _166
REMARK   70  A    between atoms: _166  and  _167
REMARK   71  A    between atoms: _169  and  _171
REMARK   72  A    between atoms: _171  and  _172
REMARK   73  A    between atoms: _171  and  _174
REMARK   74  A    between atoms: _177  and  _179
REMARK   75  A    between atoms: _179  and  _180
REMARK   76  A    between atoms: _179  and  _182
REMARK   77  A    between atoms: _185  and  _187
REMARK   78  A    between atoms: _187  and  _188
REMARK   79  A    between atoms: _187  and  _190
REMARK   80  A    between atoms: _190  and  _191
REMARK   81  A    between atoms: _195  and  _196
REMARK   82  A    between atoms: _201  and  _203
REMARK   83  A    between atoms: _203  and  _204
REMARK   84  A    between atoms: _203  and  _206
REMARK   85  A    between atoms: _206  and  _207
REMARK   86  A    between atoms: _212  and  _213
REMARK   87  A    between atoms: _215  and  _217
REMARK   88  A    between atoms: _217  and  _218
REMARK   89  A    between atoms: _217  and  _220
REMARK   90  A    between atoms: _220  and  _221
REMARK   91  A    between atoms: _221  and  _222
REMARK   92  A    between atoms: _224  and  _226
REMARK   93  A    between atoms: _226  and  _227
REMARK   94  A    between atoms: _226  and  _229
REMARK   95  A    between atoms: _229  and  _230
REMARK   96  A    between atoms: _230  and  _231
REMARK   97  A    between atoms: _231  and  _232
REMARK   98  A    between atoms: _232  and  _233
REMARK   99  A    between atoms: _237  and  _239
REMARK  100  A    between atoms: _239  and  _240
REMARK  101  A    between atoms: _239  and  _242
REMARK  102  A    between atoms: _242  and  _243
REMARK  103  A    between atoms: _248  and  _250
REMARK  104  A    between atoms: _250  and  _251
REMARK  105  A    between atoms: _253  and  _255
REMARK  106  A    between atoms: _255  and  _256
REMARK  107  A    between atoms: _255  and  _258
REMARK  108  A    between atoms: _258  and  _259
REMARK  109  A    between atoms: _262  and  _264
REMARK  110  A    between atoms: _264  and  _265
REMARK  111  A    between atoms: _264  and  _267
REMARK  112  A    between atoms: _267  and  _268
REMARK  113  A    between atoms: _271  and  _273
REMARK  114  A    between atoms: _273  and  _274
REMARK  115  A    between atoms: _273  and  _276
REMARK  116  A    between atoms: _276  and  _277
REMARK  117  A    between atoms: _277  and  _278
REMARK  118  A    between atoms: _278  and  _279
REMARK  119  A    between atoms: _288  and  _290
REMARK  120  A    between atoms: _290  and  _291
REMARK  121  A    between atoms: _290  and  _293
REMARK  122  A    between atoms: _293  and  _294
REMARK  123  A    between atoms: _299  and  _301
REMARK  124  A    between atoms: _301  and  _302
REMARK  125  A    between atoms: _301  and  _304
REMARK  126  A    between atoms: _304  and  _305
REMARK  127  A    between atoms: _311  and  _313
REMARK  128  A    between atoms: _313  and  _314
REMARK  129  A    between atoms: _313  and  _316
REMARK  130  A    between atoms: _316  and  _317
REMARK  131  A    between atoms: _322  and  _324
REMARK  132  A    between atoms: _324  and  _325
REMARK  133  A    between atoms: _324  and  _327
REMARK  134  A    between atoms: _327  and  _328
REMARK  135  A    between atoms: _333  and  _335
REMARK  136  A    between atoms: _335  and  _336
REMARK  137  A    between atoms: _335  and  _338
REMARK  138  A    between atoms: _338  and  _339
REMARK  139  A    between atoms: _344  and  _346
REMARK  140  A    between atoms: _346  and  _347
REMARK  141  A    between atoms: _346  and  _349
REMARK  142  A    between atoms: _349  and  _350
REMARK  143  A    between atoms: _353  and  _355
REMARK  144  A    between atoms: _355  and  _356
REMARK  145  A    between atoms: _359  and  _361
REMARK  146  A    between atoms: _361  and  _362
REMARK  147  A    between atoms: _365  and  _367
REMARK  148  A    between atoms: _367  and  _368
REMARK  149  A    between atoms: _367  and  _370
REMARK  150  A    between atoms: _370  and  _371
REMARK  151  A    between atoms: _371  and  _372
REMARK  152  A    between atoms: _372  and  _373
REMARK  153  A    between atoms: _382  and  _384
REMARK  154  A    between atoms: _384  and  _385
REMARK  155  A    between atoms: _384  and  _387
REMARK  156  A    between atoms: _387  and  _388
REMARK  157  A    between atoms: _393  and  _395
REMARK  158  A    between atoms: _395  and  _396
REMARK  159  A    between atoms: _395  and  _398
REMARK  160  A    between atoms: _400  and  _402
REMARK  161  A    between atoms: _402  and  _403
REMARK  162  A    between atoms: _402  and  _405
REMARK  163  A    between atoms: _405  and  _406
REMARK  164  A    between atoms: _406  and  _407
REMARK  165  A    between atoms: _409  and  _411
REMARK  166  A    between atoms: _411  and  _412
REMARK  167  A    between atoms: _411  and  _414
REMARK  168  A    between atoms: _414  and  _415
REMARK  169  A    between atoms: _418  and  _420
REMARK  170  A    between atoms: _420  and  _421
REMARK  171  A    between atoms: _420  and  _423
REMARK  172  A    between atoms: _423  and  _424
REMARK  173  A    between atoms: _427  and  _429
REMARK  174  A    between atoms: _429  and  _430
REMARK  175  A    between atoms: _429  and  _432
REMARK  176  A    between atoms: _432  and  _433
REMARK  177  A    between atoms: _433  and  _434
REMARK  178  A    between atoms: _434  and  _435
REMARK  179  A    between atoms: _435  and  _436
REMARK  180  A    between atoms: _440  and  _442
REMARK  181  A    between atoms: _442  and  _443
REMARK  182  A    between atoms: _442  and  _445
REMARK  183  A    between atoms: _448  and  _450
REMARK  184  A    between atoms: _450  and  _451
REMARK  185  A    between atoms: _454  and  _456
REMARK  186  A    between atoms: _456  and  _457
REMARK  187  A    between atoms: _456  and  _459
REMARK  188  A    between atoms: _459  and  _460
REMARK  189  A    between atoms: _463  and  _465
REMARK  190  A    between atoms: _465  and  _466
REMARK  191  A    between atoms: _465  and  _468
REMARK  192  A    between atoms: _468  and  _469
REMARK  193  A    between atoms: _475  and  _477
REMARK  194  A    between atoms: _477  and  _478
REMARK  195  A    between atoms: _477  and  _480
REMARK  196  A    between atoms: _480  and  _481
REMARK  197  A    between atoms: _484  and  _486
REMARK  198  A    between atoms: _486  and  _487
REMARK  199  A    between atoms: _490  and  _492
REMARK  200  A    between atoms: _492  and  _493
REMARK  201  A    between atoms: _492  and  _495
REMARK  202  A    between atoms: _495  and  _496
REMARK  203  A    between atoms: _496  and  _497
REMARK  204  A    between atoms: _497  and  _498
REMARK  205  A    between atoms: _507  and  _509
REMARK  206  A    between atoms: _509  and  _510
REMARK  207  A    between atoms: _509  and  _512
REMARK  208  A    between atoms: _512  and  _513
REMARK  209  A    between atoms: _516  and  _518
REMARK  210  A    between atoms: _518  and  _519
REMARK  211  A    between atoms: _518  and  _521
REMARK  212  A    between atoms: _521  and  _522
REMARK  213  A    between atoms: _522  and  _523
REMARK  214  A    between atoms: _525  and  _527
REMARK  215  A    between atoms: _527  and  _528
REMARK  216  A    between atoms: _527  and  _530
REMARK  217  A    between atoms: _530  and  _531
REMARK  218  A    between atoms: _536  and  _537
REMARK  219  A    between atoms: _539  and  _541
REMARK  220  A    between atoms: _541  and  _542
REMARK  221  A    between atoms: _541  and  _544
REMARK  222  A    between atoms: _544  and  _545
REMARK  223  A    between atoms: _548  and  _550
REMARK  224  A    between atoms: _550  and  _551
REMARK  225  A    between atoms: _550  and  _553
REMARK  226  A    between atoms: _553  and  _554
REMARK  227  A    between atoms: _559  and  _560
REMARK                            x       y       z     vdW  Elec       q    Type
REMARK                         _______ _______ _______ _____ _____    ______ ____
ROOT
ATOM      1  C   GLY A   3      16.579  87.511   0.344  0.00  0.00    +0.243 C 
ATOM      2  O   GLY A   3      16.654  88.729   0.491  0.00  0.00    -0.273 OA
ATOM      3  N   ARG A   4      15.461  86.888  -0.013  0.00  0.00    -0.297 N 
ATOM      4  H   ARG A   4      15.481  85.863  -0.185  0.00  0.00    +0.150 HD
ENDROOT
BRANCH   3   5
ATOM      5  CA  ARG A   4      14.205  87.615  -0.168  0.00  0.00    +0.149 C 
BRANCH   5   6
ATOM      6  C   ARG A   4      13.079  86.934   0.616  0.00  0.00    +0.241 C 
ATOM      7  N   GLY A   5      12.561  87.640   1.612  0.00  0.00    -0.296 N 
ATOM      8  H   GLY A   5      12.944  88.585   1.816  0.00  0.00    +0.150 HD
ATOM      9  O   ARG A   4      12.699  85.798   0.332  0.00  0.00    -0.273 OA
BRANCH   7  10
ATOM     10  CA  GLY A   5      11.478  87.128   2.420  0.00  0.00    +0.163 C 
BRANCH  10  11
ATOM     11  C   GLY A   5      10.198  87.909   2.238  0.00  0.00    +0.229 C 
ATOM     12  O   GLY A   5      10.158  88.922   1.542  0.00  0.00    -0.286 OA
ENDBRANCH  10  11
ENDBRANCH   7  10
ENDBRANCH   5   6
BRANCH   5  13
ATOM     13  CB  ARG A   4      13.819  87.815  -1.651  0.00  0.00    +0.033 C 
BRANCH  13  14
ATOM     14  CG  ARG A   4      14.785  87.219  -2.686  0.00  0.00    +0.045 C 
BRANCH  14  15
ATOM     15  CD  ARG A   4      14.527  87.675  -4.130  0.00  0.00    +0.174 C 
BRANCH  15  16
ATOM     16  NE  ARG A   4      15.453  88.726  -4.564  0.00  0.00    -0.265 N 
ATOM     17  CZ  ARG A   4      15.294  90.027  -4.320  0.00  0.00    +0.342 C 
ATOM     18  NH2 ARG A   4      14.245  90.468  -3.637  0.00  0.00    -0.292 N 
ATOM     19 HH21 ARG A   4      13.534  89.796  -3.285  0.00  0.00    +0.255 HD
ATOM     20 HH22 ARG A   4      14.134  91.486  -3.454  0.00  0.00    +0.255 HD
ATOM     21  NH1 ARG A   4      16.193  90.897  -4.756  0.00  0.00    -0.292 N 
ATOM     22 HH11 ARG A   4      16.069  91.912  -4.566  0.00  0.00    +0.255 HD
ATOM     23 HH12 ARG A   4      17.022  90.565  -5.288  0.00  0.00    +0.255 HD
ATOM     24  HE  ARG A   4      16.295  88.435  -5.101  0.00  0.00    +0.259 HD
ENDBRANCH  15  16
ENDBRANCH  14  15
ENDBRANCH  13  14
ENDBRANCH   5  13
ENDBRANCH   3   5
BRANCH   1  25
ATOM     25  CA  GLY A   3      17.795  86.643   0.550  0.00  0.00    +0.176 C 
BRANCH  25  28
ATOM     26  C   ILE A   2      20.186  86.736   0.175  0.00  0.00    +0.241 C 
ATOM     27  O   ILE A   2      20.302  85.534   0.379  0.00  0.00    -0.273 OA
ATOM     28  N   GLY A   3      19.018  87.367   0.261  0.00  0.00    -0.295 N 
ATOM     29  H   GLY A   3      18.981  88.397   0.119  0.00  0.00    +0.150 HD
BRANCH  26  30
ATOM     30  CA  ILE A   2      21.405  87.567  -0.221  0.00  0.00    +0.148 C 
BRANCH  30  32
ATOM     31  C   VAL A   1      21.229  89.470  -1.721  0.00  0.00    +0.238 C 
ATOM     32  N   ILE A   2      21.103  88.972  -0.493  0.00  0.00    -0.297 N 
ATOM     33  H   ILE A   2      20.786  89.589   0.282  0.00  0.00    +0.150 HD
ATOM     34  O   VAL A   1      21.631  88.805  -2.678  0.00  0.00    -0.274 OA
BRANCH  31  35
ATOM     35  CA  VAL A   1      20.840  90.938  -1.894  0.00  0.00    +0.145 C 
BRANCH  35  36
ATOM     36  CB  VAL A   1      19.518  91.045  -2.706  0.00  0.00    +0.025 C 
ATOM     37  CG2 VAL A   1      18.460  90.069  -2.169  0.00  0.00    +0.002 C 
ATOM     38  CG1 VAL A   1      18.980  92.467  -2.675  0.00  0.00    +0.002 C 
ENDBRANCH  35  36
BRANCH  35  39
ATOM     39  N   VAL A   1      21.925  91.723  -2.485  0.00  0.00    -0.238 NA
ATOM     40  H   VAL A   1      21.937  91.879  -3.513  0.00  0.00    +0.142 HD
ENDBRANCH  35  39
ENDBRANCH  31  35
ENDBRANCH  30  32
BRANCH  30  41
ATOM     41  CB  ILE A   2      22.575  87.408   0.793  0.00  0.00    +0.027 C 
ATOM     42  CG2 ILE A   2      23.893  87.831   0.144  0.00  0.00    +0.002 C 
BRANCH  41  43
ATOM     43  CG1 ILE A   2      22.285  88.156   2.102  0.00  0.00    +0.002 C 
ATOM     44  CD1 ILE A   2      23.504  88.652   2.834  0.00  0.00    +0.000 C 
ENDBRANCH  41  43
ENDBRANCH  30  41
ENDBRANCH  26  30
ENDBRANCH  25  28
ENDBRANCH   1  25
TORSDOF 17
REMARK  Name = ../refined-set-2016/2wgj/2wgj_pocket.pdb
REMARK  227 active torsions:
REMARK  status: ('A' for Active; 'I' for Inactive)
REMARK    1  A    between atoms: _1  and  _3
REMARK    2  A    between atoms: _3  and  _4
REMARK    3  A    between atoms: _3  and  _6
REMARK    4  A    between atoms: _9  and  _11
REMARK    5  A    between atoms: _11  and  _12
REMARK    6  A    between atoms: _11  and  _14
REMARK    7  A    between atoms: _14  and  _15
REMARK    8  A    between atoms: _18  and  _20
REMARK    9  A    between atoms: _20  and  _21
REMARK   10  A    between atoms: _23  and  _25
REMARK   11  A    between atoms: _25  and  _26
REMARK   12  A    between atoms: _25  and  _28
REMARK   13  A    between atoms: _28  and  _29
REMARK   14  A    between atoms: _29  and  _30
REMARK   15  A    between atoms: _30  and  _31
REMARK   16  A    between atoms: _40  and  _42
REMARK   17  A    between atoms: _42  and  _43
REMARK   18  A    between atoms: _45  and  _47
REMARK   19  A    between atoms: _47  and  _48
REMARK   20  A    between atoms: _50  and  _52
REMARK   21  A    between atoms: _52  and  _53
REMARK   22  A    between atoms: _52  and  _55
REMARK   23  A    between atoms: _57  and  _59
REMARK   24  A    between atoms: _59  and  _60
REMARK   25  A    between atoms: _59  and  _62
REMARK   26  A    between atoms: _65  and  _67
REMARK   27  A    between atoms: _67  and  _68
REMARK   28  A    between atoms: _67  and  _70
REMARK   29  A    between atoms: _70  and  _71
REMARK   30  A    between atoms: _76  and  _77
REMARK   31  A    between atoms: _79  and  _81
REMARK   32  A    between atoms: _81  and  _82
REMARK   33  A    between atoms: _81  and  _84
REMARK   34  A    between atoms: _84  and  _85
REMARK   35  A    between atoms: _90  and  _92
REMARK   36  A    between atoms: _92  and  _93
REMARK   37  A    between atoms: _92  and  _95
REMARK   38  A    between atoms: _95  and  _96
REMARK   39  A    between atoms: _101  and  _103
REMARK   40  A    between atoms: _103  and  _104
REMARK   41  A    between atoms: _103  and  _106
REMARK   42  A    between atoms: _108  and  _110
REMARK   43  A    between atoms: _110  and  _111
REMARK   44  A    between atoms: _114  and  _116
REMARK   45  A    between atoms: _116  and  _117
REMARK   46  A    between atoms: _116  and  _119
REMARK   47  A    between atoms: _122  and  _124
REMARK   48  A    between atoms: _124  and  _125
REMARK   49  A    between atoms: _124  and  _127
REMARK   50  A    between atoms: _127  and  _128
REMARK   51  A    between atoms: _128  and  _129
REMARK   52  A    between atoms: _129  and  _130
REMARK   53  A    between atoms: _130  and  _131
REMARK   54  A    between atoms: _135  and  _137
REMARK   55  A    between atoms: _137  and  _138
REMARK   56  A    between atoms: _137  and  _140
REMARK   57  A    between atoms: _140  and  _141
REMARK   58  A    between atoms: _143  and  _145
REMARK   59  A    between atoms: _145  and  _146
REMARK   60  A    between atoms: _145  and  _148
REMARK   61  A    between atoms: _148  and  _149
REMARK   62  A    between atoms: _149  and  _150
REMARK   63  A    between atoms: _152  and  _154
REMARK   64  A    between atoms: _154  and  _155
REMARK   65  A    between atoms: _154  and  _157
REMARK   66  A    between atoms: _157  and  _158
REMARK   67  A    between atoms: _161  and  _163
REMARK   68  A    between atoms: _163  and  _164
REMARK   69  A    between atoms: _163  and  _166
REMARK   70  A    between atoms: _166  and  _167
REMARK   71  A    between atoms: _169  and  _171
REMARK   72  A    between atoms: _171  and  _172
REMARK   73  A    between atoms: _171  and  _174
REMARK   74  A    between atoms: _177  and  _179
REMARK   75  A    between atoms: _179  and  _180
REMARK   76  A    between atoms: _179  and  _182
REMARK   77  A    between atoms: _185  and  _187
REMARK   78  A    between atoms: _187  and  _188
REMARK   79  A    between atoms: _187  and  _190
REMARK   80  A    between atoms: _190  and  _191
REMARK   81  A    between atoms: _195  and  _196
REMARK   82  A    between atoms: _201  and  _203
REMARK   83  A    between atoms: _203  and  _204
REMARK   84  A    between atoms: _203  and  _206
REMARK   85  A    between atoms: _206  and  _207
REMARK   86  A    between atoms: _212  and  _213
REMARK   87  A    between atoms: _215  and  _217
REMARK   88  A    between atoms: _217  and  _218
REMARK   89  A    between atoms: _217  and  _220
REMARK   90  A    between atoms: _220  and  _221
REMARK   91  A    between atoms: _221  and  _222
REMARK   92  A    between atoms: _224  and  _226
REMARK   93  A    between atoms: _226  and  _227
REMARK   94  A    between atoms: _226  and  _229
REMARK   95  A    between atoms: _229  and  _230
REMARK   96  A    between atoms: _230  and  _231
REMARK   97  A    between atoms: _231  and  _232
REMARK   98  A    between atoms: _232  and  _233
REMARK   99  A    between atoms: _237  and  _239
REMARK  100  A    between atoms: _239  and  _240
REMARK  101  A    between atoms: _239  and  _242
REMARK  102  A    between atoms: _242  and  _243
REMARK  103  A    between atoms: _248  and  _250
REMARK  104  A    between atoms: _250  and  _251
REMARK  105  A    between atoms: _253  and  _255
REMARK  106  A    between atoms: _255  and  _256
REMARK  107  A    between atoms: _255  and  _258
REMARK  108  A    between atoms: _258  and  _259
REMARK  109  A    between atoms: _262  and  _264
REMARK  110  A    between atoms: _264  and  _265
REMARK  111  A    between atoms: _264  and  _267
REMARK  112  A    between atoms: _267  and  _268
REMARK  113  A    between atoms: _271  and  _273
REMARK  114  A    between atoms: _273  and  _274
REMARK  115  A    between atoms: _273  and  _276
REMARK  116  A    between atoms: _276  and  _277
REMARK  117  A    between atoms: _277  and  _278
REMARK  118  A    between atoms: _278  and  _279
REMARK  119  A    between atoms: _288  and  _290
REMARK  120  A    between atoms: _290  and  _291
REMARK  121  A    between atoms: _290  and  _293
REMARK  122  A    between atoms: _293  and  _294
REMARK  123  A    between atoms: _299  and  _301
REMARK  124  A    between atoms: _301  and  _302
REMARK  125  A    between atoms: _301  and  _304
REMARK  126  A    between atoms: _304  and  _305
REMARK  127  A    between atoms: _311  and  _313
REMARK  128  A    between atoms: _313  and  _314
REMARK  129  A    between atoms: _313  and  _316
REMARK  130  A    between atoms: _316  and  _317
REMARK  131  A    between atoms: _322  and  _324
REMARK  132  A    between atoms: _324  and  _325
REMARK  133  A    between atoms: _324  and  _327
REMARK  134  A    between atoms: _327  and  _328
REMARK  135  A    between atoms: _333  and  _335
REMARK  136  A    between atoms: _335  and  _336
REMARK  137  A    between atoms: _335  and  _338
REMARK  138  A    between atoms: _338  and  _339
REMARK  139  A    between atoms: _344  and  _346
REMARK  140  A    between atoms: _346  and  _347
REMARK  141  A    between atoms: _346  and  _349
REMARK  142  A    between atoms: _349  and  _350
REMARK  143  A    between atoms: _353  and  _355
REMARK  144  A    between atoms: _355  and  _356
REMARK  145  A    between atoms: _359  and  _361
REMARK  146  A    between atoms: _361  and  _362
REMARK  147  A    between atoms: _365  and  _367
REMARK  148  A    between atoms: _367  and  _368
REMARK  149  A    between atoms: _367  and  _370
REMARK  150  A    between atoms: _370  and  _371
REMARK  151  A    between atoms: _371  and  _372
REMARK  152  A    between atoms: _372  and  _373
REMARK  153  A    between atoms: _382  and  _384
REMARK  154  A    between atoms: _384  and  _385
REMARK  155  A    between atoms: _384  and  _387
REMARK  156  A    between atoms: _387  and  _388
REMARK  157  A    between atoms: _393  and  _395
REMARK  158  A    between atoms: _395  and  _396
REMARK  159  A    between atoms: _395  and  _398
REMARK  160  A    between atoms: _400  and  _402
REMARK  161  A    between atoms: _402  and  _403
REMARK  162  A    between atoms: _402  and  _405
REMARK  163  A    between atoms: _405  and  _406
REMARK  164  A    between atoms: _406  and  _407
REMARK  165  A    between atoms: _409  and  _411
REMARK  166  A    between atoms: _411  and  _412
REMARK  167  A    between atoms: _411  and  _414
REMARK  168  A    between atoms: _414  and  _415
REMARK  169  A    between atoms: _418  and  _420
REMARK  170  A    between atoms: _420  and  _421
REMARK  171  A    between atoms: _420  and  _423
REMARK  172  A    between atoms: _423  and  _424
REMARK  173  A    between atoms: _427  and  _429
REMARK  174  A    between atoms: _429  and  _430
REMARK  175  A    between atoms: _429  and  _432
REMARK  176  A    between atoms: _432  and  _433
REMARK  177  A    between atoms: _433  and  _434
REMARK  178  A    between atoms: _434  and  _435
REMARK  179  A    between atoms: _435  and  _436
REMARK  180  A    between atoms: _440  and  _442
REMARK  181  A    between atoms: _442  and  _443
REMARK  182  A    between atoms: _442  and  _445
REMARK  183  A    between atoms: _448  and  _450
REMARK  184  A    between atoms: _450  and  _451
REMARK  185  A    between atoms: _454  and  _456
REMARK  186  A    between atoms: _456  and  _457
REMARK  187  A    between atoms: _456  and  _459
REMARK  188  A    between atoms: _459  and  _460
REMARK  189  A    between atoms: _463  and  _465
REMARK  190  A    between atoms: _465  and  _466
REMARK  191  A    between atoms: _465  and  _468
REMARK  192  A    between atoms: _468  and  _469
REMARK  193  A    between atoms: _475  and  _477
REMARK  194  A    between atoms: _477  and  _478
REMARK  195  A    between atoms: _477  and  _480
REMARK  196  A    between atoms: _480  and  _481
REMARK  197  A    between atoms: _484  and  _486
REMARK  198  A    between atoms: _486  and  _487
REMARK  199  A    between atoms: _490  and  _492
REMARK  200  A    between atoms: _492  and  _493
REMARK  201  A    between atoms: _492  and  _495
REMARK  202  A    between atoms: _495  and  _496
REMARK  203  A    between atoms: _496  and  _497
REMARK  204  A    between atoms: _497  and  _498
REMARK  205  A    between atoms: _507  and  _509
REMARK  206  A    between atoms: _509  and  _510
REMARK  207  A    between atoms: _509  and  _512
REMARK  208  A    between atoms: _512  and  _513
REMARK  209  A    between atoms: _516  and  _518
REMARK  210  A    between atoms: _518  and  _519
REMARK  211  A    between atoms: _518  and  _521
REMARK  212  A    between atoms: _521  and  _522
REMARK  213  A    between atoms: _522  and  _523
REMARK  214  A    between atoms: _525  and  _527
REMARK  215  A    between atoms: _527  and  _528
REMARK  216  A    between atoms: _527  and  _530
REMARK  217  A    between atoms: _530  and  _531
REMARK  218  A    between atoms: _536  and  _537
REMARK  219  A    between atoms: _539  and  _541
REMARK  220  A    between atoms: _541  and  _542
REMARK  221  A    between atoms: _541  and  _544
REMARK  222  A    between atoms: _544  and  _545
REMARK  223  A    between atoms: _548  and  _550
REMARK  224  A    between atoms: _550  and  _551
REMARK  225  A    between atoms: _550  and  _553
REMARK  226  A    between atoms: _553  and  _554
REMARK  227  A    between atoms: _559  and  _560
REMARK                            x       y       z     vdW  Elec       q    Type
REMARK                         _______ _______ _______ _____ _____    ______ ____
ROOT
ATOM      1  CA  TYR A   4      21.579  92.397   2.493  0.00  0.00    +0.153 C 
ENDROOT
BRANCH   1   3
ATOM      2  C   VAL A   3      19.601  90.979   2.556  0.00  0.00    +0.241 C 
ATOM      3  N   TYR A   4      20.434  91.810   3.170  0.00  0.00    -0.297 N 
ATOM      4  H   TYR A   4      20.262  92.049   4.167  0.00  0.00    +0.150 HD
ATOM      5  O   VAL A   3      19.737  90.625   1.378  0.00  0.00    -0.273 OA
BRANCH   2   6
ATOM      6  CA  VAL A   3      18.444  90.462   3.401  0.00  0.00    +0.149 C 
BRANCH   6   9
ATOM      7  C   CYS A   2      16.229  91.376   2.874  0.00  0.00    +0.242 C 
ATOM      8  O   CYS A   2      16.143  92.046   3.914  0.00  0.00    -0.273 OA
ATOM      9  N   VAL A   3      17.228  90.539   2.603  0.00  0.00    -0.297 N 
ATOM     10  H   VAL A   3      17.136  89.909   1.781  0.00  0.00    +0.150 HD
BRANCH   7  11
ATOM     11  CA  CYS A   2      15.161  91.461   1.786  0.00  0.00    +0.160 C 
BRANCH  11  14
ATOM     12  C   GLY A   1      12.993  91.319   2.875  0.00  0.00    +0.240 C 
ATOM     13  O   GLY A   1      13.095  90.095   3.019  0.00  0.00    -0.274 OA
ATOM     14  N   CYS A   2      13.915  92.054   2.258  0.00  0.00    -0.296 N 
ATOM     15  H   CYS A   2      13.744  93.069   2.110  0.00  0.00    +0.150 HD
BRANCH  12  16
ATOM     16  CA  GLY A   1      11.777  92.068   3.393  0.00  0.00    +0.169 C 
BRANCH  16  17
ATOM     17  N   GLY A   1      10.760  91.229   4.007  0.00  0.00    -0.236 NA
ATOM     18  H   GLY A   1      10.753  90.209   3.805  0.00  0.00    +0.142 HD
ENDBRANCH  16  17
ENDBRANCH  12  16
ENDBRANCH  11  14
BRANCH  11  19
ATOM     19  CB  CYS A   2      15.718  92.240   0.602  0.00  0.00    +0.098 C 
ATOM     20  SG  CYS A   2      14.817  91.973  -0.931  0.00  0.00    -0.080 S 
ENDBRANCH  11  19
ENDBRANCH   7  11
ENDBRANCH   6   9
BRANCH   6  21
ATOM     21  CB  VAL A   3      18.756  89.016   3.905  0.00  0.00    +0.027 C 
ATOM     22  CG2 VAL A   3      19.794  89.039   5.029  0.00  0.00    +0.002 C 
ATOM     23  CG1 VAL A   3      17.488  88.310   4.377  0.00  0.00    +0.002 C 
ENDBRANCH   6  21
ENDBRANCH   2   6
ENDBRANCH   1   3
BRANCH   1  24
ATOM     24  C   TYR A   4      22.872  92.182   3.238  0.00  0.00    +0.241 C 
ATOM     25  O   TYR A   4      22.887  92.039   4.462  0.00  0.00    -0.273 OA
ATOM     26  N   HIS A   5      23.961  92.184   2.481  0.00  0.00    -0.298 N 
ATOM     27  H   HIS A   5      23.862  92.082   1.451  0.00  0.00    +0.150 HD
BRANCH  26  28
ATOM     28  CA  HIS A   5      25.292  92.325   3.054  0.00  0.00    +0.143 C 
BRANCH  28  29
ATOM     29  C   HIS A   5      25.353  93.657   3.774  0.00  0.00    +0.227 C 
ATOM     30  O   HIS A   5      24.830  94.658   3.286  0.00  0.00    -0.286 OA
ENDBRANCH  28  29
BRANCH  28  31
ATOM     31  CB  HIS A   5      26.345  92.329   1.957  0.00  0.00    +0.075 C 
BRANCH  31  32
ATOM     32  CG  HIS A   5      26.692  90.967   1.445  0.00  0.00    +0.082 A 
ATOM     33  ND1 HIS A   5      27.518  90.103   2.133  0.00  0.00    -0.227 NA
ATOM     34  CE1 HIS A   5      27.656  88.988   1.440  0.00  0.00    +0.199 A 
ATOM     35  NE2 HIS A   5      26.947  89.095   0.330  0.00  0.00    -0.221 NA
ATOM     36  CD2 HIS A   5      26.337  90.325   0.307  0.00  0.00    +0.115 A 
ENDBRANCH  31  32
ENDBRANCH  28  31
ENDBRANCH  26  28
ENDBRANCH   1  24
BRANCH   1  37
ATOM     37  CB  TYR A   4      21.397  93.904   2.346  0.00  0.00    +0.055 C 
BRANCH  37  38
ATOM     38  CG  TYR A   4      20.073  94.327   1.804  0.00  0.00    -0.020 A 
ATOM     39  CD2 TYR A   4      19.004  94.560   2.662  0.00  0.00    -0.001 A 
ATOM     40  CE2 TYR A   4      17.769  94.964   2.172  0.00  0.00    +0.036 A 
ATOM     41  CZ  TYR A   4      17.610  95.147   0.809  0.00  0.00    +0.134 A 
ATOM     42  CE1 TYR A   4      18.659  94.926  -0.066  0.00  0.00    +0.036 A 
ATOM     43  CD1 TYR A   4      19.887  94.512   0.435  0.00  0.00    -0.001 A 
BRANCH  41  44
ATOM     44  OH  TYR A   4      16.395  95.547   0.338  0.00  0.00    -0.506 OA
ATOM     45  HH  TYR A   4      16.159  96.421   0.738  0.00  0.00    +0.292 HD
ENDBRANCH  41  44
ENDBRANCH  37  38
ENDBRANCH   1  37
TORSDOF 17
REMARK  Name = ../refined-set-2016/2wgj/2wgj_pocket.pdb
REMARK  227 active torsions:
REMARK  status: ('A' for Active; 'I' for Inactive)
REMARK    1  A    between atoms: _1  and  _3
REMARK    2  A    between atoms: _3  and  _4
REMARK    3  A    between atoms: _3  and  _6
REMARK    4  A    between atoms: _9  and  _11
REMARK    5  A    between atoms: _11  and  _12
REMARK    6  A    between atoms: _11  and  _14
REMARK    7  A    between atoms: _14  and  _15
REMARK    8  A    between atoms: _18  and  _20
REMARK    9  A    between atoms: _20  and  _21
REMARK   10  A    between atoms: _23  and  _25
REMARK   11  A    between atoms: _25  and  _26
REMARK   12  A    between atoms: _25  and  _28
REMARK   13  A    between atoms: _28  and  _29
REMARK   14  A    between atoms: _29  and  _30
REMARK   15  A    between atoms: _30  and  _31
REMARK   16  A    between atoms: _40  and  _42
REMARK   17  A    between atoms: _42  and  _43
REMARK   18  A    between atoms: _45  and  _47
REMARK   19  A    between atoms: _47  and  _48
REMARK   20  A    between atoms: _50  and  _52
REMARK   21  A    between atoms: _52  and  _53
REMARK   22  A    between atoms: _52  and  _55
REMARK   23  A    between atoms: _57  and  _59
REMARK   24  A    between atoms: _59  and  _60
REMARK   25  A    between atoms: _59  and  _62
REMARK   26  A    between atoms: _65  and  _67
REMARK   27  A    between atoms: _67  and  _68
REMARK   28  A    between atoms: _67  and  _70
REMARK   29  A    between atoms: _70  and  _71
REMARK   30  A    between atoms: _76  and  _77
REMARK   31  A    between atoms: _79  and  _81
REMARK   32  A    between atoms: _81  and  _82
REMARK   33  A    between atoms: _81  and  _84
REMARK   34  A    between atoms: _84  and  _85
REMARK   35  A    between atoms: _90  and  _92
REMARK   36  A    between atoms: _92  and  _93
REMARK   37  A    between atoms: _92  and  _95
REMARK   38  A    between atoms: _95  and  _96
REMARK   39  A    between atoms: _101  and  _103
REMARK   40  A    between atoms: _103  and  _104
REMARK   41  A    between atoms: _103  and  _106
REMARK   42  A    between atoms: _108  and  _110
REMARK   43  A    between atoms: _110  and  _111
REMARK   44  A    between atoms: _114  and  _116
REMARK   45  A    between atoms: _116  and  _117
REMARK   46  A    between atoms: _116  and  _119
REMARK   47  A    between atoms: _122  and  _124
REMARK   48  A    between atoms: _124  and  _125
REMARK   49  A    between atoms: _124  and  _127
REMARK   50  A    between atoms: _127  and  _128
REMARK   51  A    between atoms: _128  and  _129
REMARK   52  A    between atoms: _129  and  _130
REMARK   53  A    between atoms: _130  and  _131
REMARK   54  A    between atoms: _135  and  _137
REMARK   55  A    between atoms: _137  and  _138
REMARK   56  A    between atoms: _137  and  _140
REMARK   57  A    between atoms: _140  and  _141
REMARK   58  A    between atoms: _143  and  _145
REMARK   59  A    between atoms: _145  and  _146
REMARK   60  A    between atoms: _145  and  _148
REMARK   61  A    between atoms: _148  and  _149
REMARK   62  A    between atoms: _149  and  _150
REMARK   63  A    between atoms: _152  and  _154
REMARK   64  A    between atoms: _154  and  _155
REMARK   65  A    between atoms: _154  and  _157
REMARK   66  A    between atoms: _157  and  _158
REMARK   67  A    between atoms: _161  and  _163
REMARK   68  A    between atoms: _163  and  _164
REMARK   69  A    between atoms: _163  and  _166
REMARK   70  A    between atoms: _166  and  _167
REMARK   71  A    between atoms: _169  and  _171
REMARK   72  A    between atoms: _171  and  _172
REMARK   73  A    between atoms: _171  and  _174
REMARK   74  A    between atoms: _177  and  _179
REMARK   75  A    between atoms: _179  and  _180
REMARK   76  A    between atoms: _179  and  _182
REMARK   77  A    between atoms: _185  and  _187
REMARK   78  A    between atoms: _187  and  _188
REMARK   79  A    between atoms: _187  and  _190
REMARK   80  A    between atoms: _190  and  _191
REMARK   81  A    between atoms: _195  and  _196
REMARK   82  A    between atoms: _201  and  _203
REMARK   83  A    between atoms: _203  and  _204
REMARK   84  A    between atoms: _203  and  _206
REMARK   85  A    between atoms: _206  and  _207
REMARK   86  A    between atoms: _212  and  _213
REMARK   87  A    between atoms: _215  and  _217
REMARK   88  A    between atoms: _217  and  _218
REMARK   89  A    between atoms: _217  and  _220
REMARK   90  A    between atoms: _220  and  _221
REMARK   91  A    between atoms: _221  and  _222
REMARK   92  A    between atoms: _224  and  _226
REMARK   93  A    between atoms: _226  and  _227
REMARK   94  A    between atoms: _226  and  _229
REMARK   95  A    between atoms: _229  and  _230
REMARK   96  A    between atoms: _230  and  _231
REMARK   97  A    between atoms: _231  and  _232
REMARK   98  A    between atoms: _232  and  _233
REMARK   99  A    between atoms: _237  and  _239
REMARK  100  A    between atoms: _239  and  _240
REMARK  101  A    between atoms: _239  and  _242
REMARK  102  A    between atoms: _242  and  _243
REMARK  103  A    between atoms: _248  and  _250
REMARK  104  A    between atoms: _250  and  _251
REMARK  105  A    between atoms: _253  and  _255
REMARK  106  A    between atoms: _255  and  _256
REMARK  107  A    between atoms: _255  and  _258
REMARK  108  A    between atoms: _258  and  _259
REMARK  109  A    between atoms: _262  and  _264
REMARK  110  A    between atoms: _264  and  _265
REMARK  111  A    between atoms: _264  and  _267
REMARK  112  A    between atoms: _267  and  _268
REMARK  113  A    between atoms: _271  and  _273
REMARK  114  A    between atoms: _273  and  _274
REMARK  115  A    between atoms: _273  and  _276
REMARK  116  A    between atoms: _276  and  _277
REMARK  117  A    between atoms: _277  and  _278
REMARK  118  A    between atoms: _278  and  _279
REMARK  119  A    between atoms: _288  and  _290
REMARK  120  A    between atoms: _290  and  _291
REMARK  121  A    between atoms: _290  and  _293
REMARK  122  A    between atoms: _293  and  _294
REMARK  123  A    between atoms: _299  and  _301
REMARK  124  A    between atoms: _301  and  _302
REMARK  125  A    between atoms: _301  and  _304
REMARK  126  A    between atoms: _304  and  _305
REMARK  127  A    between atoms: _311  and  _313
REMARK  128  A    between atoms: _313  and  _314
REMARK  129  A    between atoms: _313  and  _316
REMARK  130  A    between atoms: _316  and  _317
REMARK  131  A    between atoms: _322  and  _324
REMARK  132  A    between atoms: _324  and  _325
REMARK  133  A    between atoms: _324  and  _327
REMARK  134  A    between atoms: _327  and  _328
REMARK  135  A    between atoms: _333  and  _335
REMARK  136  A    between atoms: _335  and  _336
REMARK  137  A    between atoms: _335  and  _338
REMARK  138  A    between atoms: _338  and  _339
REMARK  139  A    between atoms: _344  and  _346
REMARK  140  A    between atoms: _346  and  _347
REMARK  141  A    between atoms: _346  and  _349
REMARK  142  A    between atoms: _349  and  _350
REMARK  143  A    between atoms: _353  and  _355
REMARK  144  A    between atoms: _355  and  _356
REMARK  145  A    between atoms: _359  and  _361
REMARK  146  A    between atoms: _361  and  _362
REMARK  147  A    between atoms: _365  and  _367
REMARK  148  A    between atoms: _367  and  _368
REMARK  149  A    between atoms: _367  and  _370
REMARK  150  A    between atoms: _370  and  _371
REMARK  151  A    between atoms: _371  and  _372
REMARK  152  A    between atoms: _372  and  _373
REMARK  153  A    between atoms: _382  and  _384
REMARK  154  A    between atoms: _384  and  _385
REMARK  155  A    between atoms: _384  and  _387
REMARK  156  A    between atoms: _387  and  _388
REMARK  157  A    between atoms: _393  and  _395
REMARK  158  A    between atoms: _395  and  _396
REMARK  159  A    between atoms: _395  and  _398
REMARK  160  A    between atoms: _400  and  _402
REMARK  161  A    between atoms: _402  and  _403
REMARK  162  A    between atoms: _402  and  _405
REMARK  163  A    between atoms: _405  and  _406
REMARK  164  A    between atoms: _406  and  _407
REMARK  165  A    between atoms: _409  and  _411
REMARK  166  A    between atoms: _411  and  _412
REMARK  167  A    between atoms: _411  and  _414
REMARK  168  A    between atoms: _414  and  _415
REMARK  169  A    between atoms: _418  and  _420
REMARK  170  A    between atoms: _420  and  _421
REMARK  171  A    between atoms: _420  and  _423
REMARK  172  A    between atoms: _423  and  _424
REMARK  173  A    between atoms: _427  and  _429
REMARK  174  A    between atoms: _429  and  _430
REMARK  175  A    between atoms: _429  and  _432
REMARK  176  A    between atoms: _432  and  _433
REMARK  177  A    between atoms: _433  and  _434
REMARK  178  A    between atoms: _434  and  _435
REMARK  179  A    between atoms: _435  and  _436
REMARK  180  A    between atoms: _440  and  _442
REMARK  181  A    between atoms: _442  and  _443
REMARK  182  A    between atoms: _442  and  _445
REMARK  183  A    between atoms: _448  and  _450
REMARK  184  A    between atoms: _450  and  _451
REMARK  185  A    between atoms: _454  and  _456
REMARK  186  A    between atoms: _456  and  _457
REMARK  187  A    between atoms: _456  and  _459
REMARK  188  A    between atoms: _459  and  _460
REMARK  189  A    between atoms: _463  and  _465
REMARK  190  A    between atoms: _465  and  _466
REMARK  191  A    between atoms: _465  and  _468
REMARK  192  A    between atoms: _468  and  _469
REMARK  193  A    between atoms: _475  and  _477
REMARK  194  A    between atoms: _477  and  _478
REMARK  195  A    between atoms: _477  and  _480
REMARK  196  A    between atoms: _480  and  _481
REMARK  197  A    between atoms: _484  and  _486
REMARK  198  A    between atoms: _486  and  _487
REMARK  199  A    between atoms: _490  and  _492
REMARK  200  A    between atoms: _492  and  _493
REMARK  201  A    between atoms: _492  and  _495
REMARK  202  A    between atoms: _495  and  _496
REMARK  203  A    between atoms: _496  and  _497
REMARK  204  A    between atoms: _497  and  _498
REMARK  205  A    between atoms: _507  and  _509
REMARK  206  A    between atoms: _509  and  _510
REMARK  207  A    between atoms: _509  and  _512
REMARK  208  A    between atoms: _512  and  _513
REMARK  209  A    between atoms: _516  and  _518
REMARK  210  A    between atoms: _518  and  _519
REMARK  211  A    between atoms: _518  and  _521
REMARK  212  A    between atoms: _521  and  _522
REMARK  213  A    between atoms: _522  and  _523
REMARK  214  A    between atoms: _525  and  _527
REMARK  215  A    between atoms: _527  and  _528
REMARK  216  A    between atoms: _527  and  _530
REMARK  217  A    between atoms: _530  and  _531
REMARK  218  A    between atoms: _536  and  _537
REMARK  219  A    between atoms: _539  and  _541
REMARK  220  A    between atoms: _541  and  _542
REMARK  221  A    between atoms: _541  and  _544
REMARK  222  A    between atoms: _544  and  _545
REMARK  223  A    between atoms: _548  and  _550
REMARK  224  A    between atoms: _550  and  _551
REMARK  225  A    between atoms: _550  and  _553
REMARK  226  A    between atoms: _553  and  _554
REMARK  227  A    between atoms: _559  and  _560
REMARK                            x       y       z     vdW  Elec       q    Type
REMARK                         _______ _______ _______ _____ _____    ______ ____
ROOT
ATOM      1  CA  VAL A   4      20.936  92.734   7.498  0.00  0.00    +0.149 C 
ENDROOT
BRANCH   1   2
ATOM      2  C   VAL A   4      19.563  92.423   6.918  0.00  0.00    +0.241 C 
ATOM      3  N   LYS A   5      18.635  92.058   7.794  0.00  0.00    -0.297 N 
ATOM      4  H   LYS A   5      18.889  91.976   8.799  0.00  0.00    +0.150 HD
ATOM      5  O   VAL A   4      19.357  92.499   5.705  0.00  0.00    -0.273 OA
BRANCH   3   6
ATOM      6  CA  LYS A   5      17.270  91.770   7.379  0.00  0.00    +0.149 C 
BRANCH   6   7
ATOM      7  C   LYS A   5      16.417  93.021   7.464  0.00  0.00    +0.241 C 
ATOM      8  O   LYS A   5      16.223  93.574   8.545  0.00  0.00    -0.273 OA
ATOM      9  N   SER A   6      15.924  93.459   6.310  0.00  0.00    -0.296 N 
ATOM     10  H   SER A   6      16.208  92.981   5.431  0.00  0.00    +0.150 HD
BRANCH   9  11
ATOM     11  CA  SER A   6      15.001  94.583   6.230  0.00  0.00    +0.166 C 
BRANCH  11  12
ATOM     12  CB  SER A   6      13.572  94.113   6.530  0.00  0.00    +0.229 C 
ATOM     13  OG  SER A   6      13.123  93.087   6.013  0.00  0.00    -0.286 OA
ENDBRANCH  11  12
BRANCH  11  14
ATOM     14  C   SER A   6      15.087  95.231   4.845  0.00  0.00    +0.165 C 
BRANCH  14  15
ATOM     15  O   SER A   6      13.900  95.929   4.515  0.00  0.00    -0.380 OA
ATOM     16  H   SER A   6      13.995  96.332   3.616  0.00  0.00    +0.211 HD
ENDBRANCH  14  15
ENDBRANCH  11  14
ENDBRANCH   9  11
ENDBRANCH   6   7
BRANCH   6  17
ATOM     17  CB  LYS A   5      16.648  90.639   8.213  0.00  0.00    +0.029 C 
BRANCH  17  18
ATOM     18  CG  LYS A   5      15.156  90.414   7.919  0.00  0.00    +0.000 C 
BRANCH  18  19
ATOM     19  CD  LYS A   5      14.955  89.818   6.522  0.00  0.00    -0.024 C 
BRANCH  19  20
ATOM     20  CE  LYS A   5      13.480  89.773   6.126  0.00  0.00    -0.086 C 
BRANCH  20  21
ATOM     21  NZ  LYS A   5      12.721  88.895   7.036  0.00  0.00    +0.380 N 
ATOM     22  HZ1 LYS A   5      12.797  89.256   8.008  0.00  0.00    -0.089 HD
ATOM     23  HZ2 LYS A   5      13.111  87.932   6.991  0.00  0.00    -0.089 HD
ATOM     24  HZ3 LYS A   5      11.722  88.880   6.748  0.00  0.00    -0.089 HD
ENDBRANCH  20  21
ENDBRANCH  19  20
ENDBRANCH  18  19
ENDBRANCH  17  18
ENDBRANCH   6  17
ENDBRANCH   3   6
ENDBRANCH   1   2
BRANCH   1  27
ATOM     25  C   ALA A   3      22.431  90.865   7.885  0.00  0.00    +0.241 C 
ATOM     26  O   ALA A   3      22.159  90.835   9.094  0.00  0.00    -0.273 OA
ATOM     27  N   VAL A   4      21.895  91.740   7.045  0.00  0.00    -0.297 N 
ATOM     28  H   VAL A   4      22.166  91.715   6.041  0.00  0.00    +0.150 HD
BRANCH  25  29
ATOM     29  CA  ALA A   3      23.446  89.899   7.285  0.00  0.00    +0.149 C 
ATOM     30  CB  ALA A   3      22.900  88.495   7.253  0.00  0.00    +0.031 C 
BRANCH  29  32
ATOM     31  C   CYS A   2      25.701  90.683   7.753  0.00  0.00    +0.242 C 
ATOM     32  N   ALA A   3      24.643  89.958   8.099  0.00  0.00    -0.297 N 
ATOM     33  H   ALA A   3      24.675  89.414   8.985  0.00  0.00    +0.150 HD
ATOM     34  O   CYS A   2      25.857  91.163   6.632  0.00  0.00    -0.273 OA
BRANCH  31  35
ATOM     35  CA  CYS A   2      26.759  90.841   8.842  0.00  0.00    +0.160 C 
BRANCH  35  38
ATOM     36  C   HIS A   1      29.165  90.711   8.789  0.00  0.00    +0.239 C 
ATOM     37  O   HIS A   1      29.154  89.755   9.570  0.00  0.00    -0.274 OA
ATOM     38  N   CYS A   2      28.056  91.313   8.376  0.00  0.00    -0.296 N 
ATOM     39  H   CYS A   2      28.113  92.119   7.722  0.00  0.00    +0.150 HD
BRANCH  36  40
ATOM     40  CA  HIS A   1      30.477  91.270   8.268  0.00  0.00    +0.151 C 
BRANCH  40  41
ATOM     41  N   HIS A   1      31.293  91.589   9.424  0.00  0.00    -0.238 NA
ATOM     42  H   HIS A   1      32.058  90.935   9.686  0.00  0.00    +0.142 HD
ENDBRANCH  40  41
BRANCH  40  43
ATOM     43  CB  HIS A   1      31.187  90.211   7.429  0.00  0.00    +0.074 C 
BRANCH  43  44
ATOM     44  CG  HIS A   1      30.987  90.359   5.953  0.00  0.00    +0.082 A 
ATOM     45  ND1 HIS A   1      30.231  89.475   5.212  0.00  0.00    -0.227 NA
ATOM     46  CE1 HIS A   1      30.238  89.843   3.943  0.00  0.00    +0.199 A 
ATOM     47  NE2 HIS A   1      30.978  90.932   3.832  0.00  0.00    -0.221 NA
ATOM     48  CD2 HIS A   1      31.463  91.273   5.074  0.00  0.00    +0.115 A 
ENDBRANCH  43  44
ENDBRANCH  40  43
ENDBRANCH  36  40
ENDBRANCH  35  38
BRANCH  35  49
ATOM     49  CB  CYS A   2      26.234  91.698  10.003  0.00  0.00    +0.098 C 
ATOM     50  SG  CYS A   2      26.508  93.467   9.867  0.00  0.00    -0.080 S 
ENDBRANCH  35  49
ENDBRANCH  31  35
ENDBRANCH  29  32
ENDBRANCH  25  29
ENDBRANCH   1  27
BRANCH   1  51
ATOM     51  CB  VAL A   4      21.375  94.161   7.110  0.00  0.00    +0.027 C 
ATOM     52  CG2 VAL A   4      20.381  95.204   7.635  0.00  0.00    +0.002 C 
ATOM     53  CG1 VAL A   4      22.786  94.437   7.612  0.00  0.00    +0.002 C 
ENDBRANCH   1  51
TORSDOF 23
REMARK  Name = ../refined-set-2016/2wgj/2wgj_pocket.pdb
REMARK  227 active torsions:
REMARK  status: ('A' for Active; 'I' for Inactive)
REMARK    1  A    between atoms: _1  and  _3
REMARK    2  A    between atoms: _3  and  _4
REMARK    3  A    between atoms: _3  and  _6
REMARK    4  A    between atoms: _9  and  _11
REMARK    5  A    between atoms: _11  and  _12
REMARK    6  A    between atoms: _11  and  _14
REMARK    7  A    between atoms: _14  and  _15
REMARK    8  A    between atoms: _18  and  _20
REMARK    9  A    between atoms: _20  and  _21
REMARK   10  A    between atoms: _23  and  _25
REMARK   11  A    between atoms: _25  and  _26
REMARK   12  A    between atoms: _25  and  _28
REMARK   13  A    between atoms: _28  and  _29
REMARK   14  A    between atoms: _29  and  _30
REMARK   15  A    between atoms: _30  and  _31
REMARK   16  A    between atoms: _40  and  _42
REMARK   17  A    between atoms: _42  and  _43
REMARK   18  A    between atoms: _45  and  _47
REMARK   19  A    between atoms: _47  and  _48
REMARK   20  A    between atoms: _50  and  _52
REMARK   21  A    between atoms: _52  and  _53
REMARK   22  A    between atoms: _52  and  _55
REMARK   23  A    between atoms: _57  and  _59
REMARK   24  A    between atoms: _59  and  _60
REMARK   25  A    between atoms: _59  and  _62
REMARK   26  A    between atoms: _65  and  _67
REMARK   27  A    between atoms: _67  and  _68
REMARK   28  A    between atoms: _67  and  _70
REMARK   29  A    between atoms: _70  and  _71
REMARK   30  A    between atoms: _76  and  _77
REMARK   31  A    between atoms: _79  and  _81
REMARK   32  A    between atoms: _81  and  _82
REMARK   33  A    between atoms: _81  and  _84
REMARK   34  A    between atoms: _84  and  _85
REMARK   35  A    between atoms: _90  and  _92
REMARK   36  A    between atoms: _92  and  _93
REMARK   37  A    between atoms: _92  and  _95
REMARK   38  A    between atoms: _95  and  _96
REMARK   39  A    between atoms: _101  and  _103
REMARK   40  A    between atoms: _103  and  _104
REMARK   41  A    between atoms: _103  and  _106
REMARK   42  A    between atoms: _108  and  _110
REMARK   43  A    between atoms: _110  and  _111
REMARK   44  A    between atoms: _114  and  _116
REMARK   45  A    between atoms: _116  and  _117
REMARK   46  A    between atoms: _116  and  _119
REMARK   47  A    between atoms: _122  and  _124
REMARK   48  A    between atoms: _124  and  _125
REMARK   49  A    between atoms: _124  and  _127
REMARK   50  A    between atoms: _127  and  _128
REMARK   51  A    between atoms: _128  and  _129
REMARK   52  A    between atoms: _129  and  _130
REMARK   53  A    between atoms: _130  and  _131
REMARK   54  A    between atoms: _135  and  _137
REMARK   55  A    between atoms: _137  and  _138
REMARK   56  A    between atoms: _137  and  _140
REMARK   57  A    between atoms: _140  and  _141
REMARK   58  A    between atoms: _143  and  _145
REMARK   59  A    between atoms: _145  and  _146
REMARK   60  A    between atoms: _145  and  _148
REMARK   61  A    between atoms: _148  and  _149
REMARK   62  A    between atoms: _149  and  _150
REMARK   63  A    between atoms: _152  and  _154
REMARK   64  A    between atoms: _154  and  _155
REMARK   65  A    between atoms: _154  and  _157
REMARK   66  A    between atoms: _157  and  _158
REMARK   67  A    between atoms: _161  and  _163
REMARK   68  A    between atoms: _163  and  _164
REMARK   69  A    between atoms: _163  and  _166
REMARK   70  A    between atoms: _166  and  _167
REMARK   71  A    between atoms: _169  and  _171
REMARK   72  A    between atoms: _171  and  _172
REMARK   73  A    between atoms: _171  and  _174
REMARK   74  A    between atoms: _177  and  _179
REMARK   75  A    between atoms: _179  and  _180
REMARK   76  A    between atoms: _179  and  _182
REMARK   77  A    between atoms: _185  and  _187
REMARK   78  A    between atoms: _187  and  _188
REMARK   79  A    between atoms: _187  and  _190
REMARK   80  A    between atoms: _190  and  _191
REMARK   81  A    between atoms: _195  and  _196
REMARK   82  A    between atoms: _201  and  _203
REMARK   83  A    between atoms: _203  and  _204
REMARK   84  A    between atoms: _203  and  _206
REMARK   85  A    between atoms: _206  and  _207
REMARK   86  A    between atoms: _212  and  _213
REMARK   87  A    between atoms: _215  and  _217
REMARK   88  A    between atoms: _217  and  _218
REMARK   89  A    between atoms: _217  and  _220
REMARK   90  A    between atoms: _220  and  _221
REMARK   91  A    between atoms: _221  and  _222
REMARK   92  A    between atoms: _224  and  _226
REMARK   93  A    between atoms: _226  and  _227
REMARK   94  A    between atoms: _226  and  _229
REMARK   95  A    between atoms: _229  and  _230
REMARK   96  A    between atoms: _230  and  _231
REMARK   97  A    between atoms: _231  and  _232
REMARK   98  A    between atoms: _232  and  _233
REMARK   99  A    between atoms: _237  and  _239
REMARK  100  A    between atoms: _239  and  _240
REMARK  101  A    between atoms: _239  and  _242
REMARK  102  A    between atoms: _242  and  _243
REMARK  103  A    between atoms: _248  and  _250
REMARK  104  A    between atoms: _250  and  _251
REMARK  105  A    between atoms: _253  and  _255
REMARK  106  A    between atoms: _255  and  _256
REMARK  107  A    between atoms: _255  and  _258
REMARK  108  A    between atoms: _258  and  _259
REMARK  109  A    between atoms: _262  and  _264
REMARK  110  A    between atoms: _264  and  _265
REMARK  111  A    between atoms: _264  and  _267
REMARK  112  A    between atoms: _267  and  _268
REMARK  113  A    between atoms: _271  and  _273
REMARK  114  A    between atoms: _273  and  _274
REMARK  115  A    between atoms: _273  and  _276
REMARK  116  A    between atoms: _276  and  _277
REMARK  117  A    between atoms: _277  and  _278
REMARK  118  A    between atoms: _278  and  _279
REMARK  119  A    between atoms: _288  and  _290
REMARK  120  A    between atoms: _290  and  _291
REMARK  121  A    between atoms: _290  and  _293
REMARK  122  A    between atoms: _293  and  _294
REMARK  123  A    between atoms: _299  and  _301
REMARK  124  A    between atoms: _301  and  _302
REMARK  125  A    between atoms: _301  and  _304
REMARK  126  A    between atoms: _304  and  _305
REMARK  127  A    between atoms: _311  and  _313
REMARK  128  A    between atoms: _313  and  _314
REMARK  129  A    between atoms: _313  and  _316
REMARK  130  A    between atoms: _316  and  _317
REMARK  131  A    between atoms: _322  and  _324
REMARK  132  A    between atoms: _324  and  _325
REMARK  133  A    between atoms: _324  and  _327
REMARK  134  A    between atoms: _327  and  _328
REMARK  135  A    between atoms: _333  and  _335
REMARK  136  A    between atoms: _335  and  _336
REMARK  137  A    between atoms: _335  and  _338
REMARK  138  A    between atoms: _338  and  _339
REMARK  139  A    between atoms: _344  and  _346
REMARK  140  A    between atoms: _346  and  _347
REMARK  141  A    between atoms: _346  and  _349
REMARK  142  A    between atoms: _349  and  _350
REMARK  143  A    between atoms: _353  and  _355
REMARK  144  A    between atoms: _355  and  _356
REMARK  145  A    between atoms: _359  and  _361
REMARK  146  A    between atoms: _361  and  _362
REMARK  147  A    between atoms: _365  and  _367
REMARK  148  A    between atoms: _367  and  _368
REMARK  149  A    between atoms: _367  and  _370
REMARK  150  A    between atoms: _370  and  _371
REMARK  151  A    between atoms: _371  and  _372
REMARK  152  A    between atoms: _372  and  _373
REMARK  153  A    between atoms: _382  and  _384
REMARK  154  A    between atoms: _384  and  _385
REMARK  155  A    between atoms: _384  and  _387
REMARK  156  A    between atoms: _387  and  _388
REMARK  157  A    between atoms: _393  and  _395
REMARK  158  A    between atoms: _395  and  _396
REMARK  159  A    between atoms: _395  and  _398
REMARK  160  A    between atoms: _400  and  _402
REMARK  161  A    between atoms: _402  and  _403
REMARK  162  A    between atoms: _402  and  _405
REMARK  163  A    between atoms: _405  and  _406
REMARK  164  A    between atoms: _406  and  _407
REMARK  165  A    between atoms: _409  and  _411
REMARK  166  A    between atoms: _411  and  _412
REMARK  167  A    between atoms: _411  and  _414
REMARK  168  A    between atoms: _414  and  _415
REMARK  169  A    between atoms: _418  and  _420
REMARK  170  A    between atoms: _420  and  _421
REMARK  171  A    between atoms: _420  and  _423
REMARK  172  A    between atoms: _423  and  _424
REMARK  173  A    between atoms: _427  and  _429
REMARK  174  A    between atoms: _429  and  _430
REMARK  175  A    between atoms: _429  and  _432
REMARK  176  A    between atoms: _432  and  _433
REMARK  177  A    between atoms: _433  and  _434
REMARK  178  A    between atoms: _434  and  _435
REMARK  179  A    between atoms: _435  and  _436
REMARK  180  A    between atoms: _440  and  _442
REMARK  181  A    between atoms: _442  and  _443
REMARK  182  A    between atoms: _442  and  _445
REMARK  183  A    between atoms: _448  and  _450
REMARK  184  A    between atoms: _450  and  _451
REMARK  185  A    between atoms: _454  and  _456
REMARK  186  A    between atoms: _456  and  _457
REMARK  187  A    between atoms: _456  and  _459
REMARK  188  A    between atoms: _459  and  _460
REMARK  189  A    between atoms: _463  and  _465
REMARK  190  A    between atoms: _465  and  _466
REMARK  191  A    between atoms: _465  and  _468
REMARK  192  A    between atoms: _468  and  _469
REMARK  193  A    between atoms: _475  and  _477
REMARK  194  A    between atoms: _477  and  _478
REMARK  195  A    between atoms: _477  and  _480
REMARK  196  A    between atoms: _480  and  _481
REMARK  197  A    between atoms: _484  and  _486
REMARK  198  A    between atoms: _486  and  _487
REMARK  199  A    between atoms: _490  and  _492
REMARK  200  A    between atoms: _492  and  _493
REMARK  201  A    between atoms: _492  and  _495
REMARK  202  A    between atoms: _495  and  _496
REMARK  203  A    between atoms: _496  and  _497
REMARK  204  A    between atoms: _497  and  _498
REMARK  205  A    between atoms: _507  and  _509
REMARK  206  A    between atoms: _509  and  _510
REMARK  207  A    between atoms: _509  and  _512
REMARK  208  A    between atoms: _512  and  _513
REMARK  209  A    between atoms: _516  and  _518
REMARK  210  A    between atoms: _518  and  _519
REMARK  211  A    between atoms: _518  and  _521
REMARK  212  A    between atoms: _521  and  _522
REMARK  213  A    between atoms: _522  and  _523
REMARK  214  A    between atoms: _525  and  _527
REMARK  215  A    between atoms: _527  and  _528
REMARK  216  A    between atoms: _527  and  _530
REMARK  217  A    between atoms: _530  and  _531
REMARK  218  A    between atoms: _536  and  _537
REMARK  219  A    between atoms: _539  and  _541
REMARK  220  A    between atoms: _541  and  _542
REMARK  221  A    between atoms: _541  and  _544
REMARK  222  A    between atoms: _544  and  _545
REMARK  223  A    between atoms: _548  and  _550
REMARK  224  A    between atoms: _550  and  _551
REMARK  225  A    between atoms: _550  and  _553
REMARK  226  A    between atoms: _553  and  _554
REMARK  227  A    between atoms: _559  and  _560
REMARK                            x       y       z     vdW  Elec       q    Type
REMARK                         _______ _______ _______ _____ _____    ______ ____
ROOT
ATOM      1  CA  MET A   1      16.443  85.834  20.536  0.00  0.00    +0.134 C 
ENDROOT
BRANCH   1   2
ATOM      2  N   MET A   1      15.247  86.255  21.268  0.00  0.00    -0.239 NA
ATOM      3  H   MET A   1      14.485  86.710  20.726  0.00  0.00    +0.142 HD
ENDBRANCH   1   2
BRANCH   1   4
ATOM      4  C   MET A   1      17.752  86.370  21.130  0.00  0.00    +0.224 C 
ATOM      5  O   MET A   1      18.818  85.753  20.978  0.00  0.00    -0.287 OA
ENDBRANCH   1   4
BRANCH   1   6
ATOM      6  CB  MET A   1      16.317  86.306  19.088  0.00  0.00    +0.037 C 
BRANCH   6   7
ATOM      7  CG  MET A   1      17.314  85.715  18.119  0.00  0.00    +0.059 C 
BRANCH   7   8
ATOM      8  SD  MET A   1      17.254  86.574  16.537  0.00  0.00    -0.139 S 
ATOM      9  CE  MET A   1      18.301  85.454  15.567  0.00  0.00    +0.069 C 
ENDBRANCH   7   8
ENDBRANCH   6   7
ENDBRANCH   1   6
TORSDOF 5
REMARK  Name = ../refined-set-2016/2wgj/2wgj_pocket.pdb
REMARK  227 active torsions:
REMARK  status: ('A' for Active; 'I' for Inactive)
REMARK    1  A    between atoms: _1  and  _3
REMARK    2  A    between atoms: _3  and  _4
REMARK    3  A    between atoms: _3  and  _6
REMARK    4  A    between atoms: _9  and  _11
REMARK    5  A    between atoms: _11  and  _12
REMARK    6  A    between atoms: _11  and  _14
REMARK    7  A    between atoms: _14  and  _15
REMARK    8  A    between atoms: _18  and  _20
REMARK    9  A    between atoms: _20  and  _21
REMARK   10  A    between atoms: _23  and  _25
REMARK   11  A    between atoms: _25  and  _26
REMARK   12  A    between atoms: _25  and  _28
REMARK   13  A    between atoms: _28  and  _29
REMARK   14  A    between atoms: _29  and  _30
REMARK   15  A    between atoms: _30  and  _31
REMARK   16  A    between atoms: _40  and  _42
REMARK   17  A    between atoms: _42  and  _43
REMARK   18  A    between atoms: _45  and  _47
REMARK   19  A    between atoms: _47  and  _48
REMARK   20  A    between atoms: _50  and  _52
REMARK   21  A    between atoms: _52  and  _53
REMARK   22  A    between atoms: _52  and  _55
REMARK   23  A    between atoms: _57  and  _59
REMARK   24  A    between atoms: _59  and  _60
REMARK   25  A    between atoms: _59  and  _62
REMARK   26  A    between atoms: _65  and  _67
REMARK   27  A    between atoms: _67  and  _68
REMARK   28  A    between atoms: _67  and  _70
REMARK   29  A    between atoms: _70  and  _71
REMARK   30  A    between atoms: _76  and  _77
REMARK   31  A    between atoms: _79  and  _81
REMARK   32  A    between atoms: _81  and  _82
REMARK   33  A    between atoms: _81  and  _84
REMARK   34  A    between atoms: _84  and  _85
REMARK   35  A    between atoms: _90  and  _92
REMARK   36  A    between atoms: _92  and  _93
REMARK   37  A    between atoms: _92  and  _95
REMARK   38  A    between atoms: _95  and  _96
REMARK   39  A    between atoms: _101  and  _103
REMARK   40  A    between atoms: _103  and  _104
REMARK   41  A    between atoms: _103  and  _106
REMARK   42  A    between atoms: _108  and  _110
REMARK   43  A    between atoms: _110  and  _111
REMARK   44  A    between atoms: _114  and  _116
REMARK   45  A    between atoms: _116  and  _117
REMARK   46  A    between atoms: _116  and  _119
REMARK   47  A    between atoms: _122  and  _124
REMARK   48  A    between atoms: _124  and  _125
REMARK   49  A    between atoms: _124  and  _127
REMARK   50  A    between atoms: _127  and  _128
REMARK   51  A    between atoms: _128  and  _129
REMARK   52  A    between atoms: _129  and  _130
REMARK   53  A    between atoms: _130  and  _131
REMARK   54  A    between atoms: _135  and  _137
REMARK   55  A    between atoms: _137  and  _138
REMARK   56  A    between atoms: _137  and  _140
REMARK   57  A    between atoms: _140  and  _141
REMARK   58  A    between atoms: _143  and  _145
REMARK   59  A    between atoms: _145  and  _146
REMARK   60  A    between atoms: _145  and  _148
REMARK   61  A    between atoms: _148  and  _149
REMARK   62  A    between atoms: _149  and  _150
REMARK   63  A    between atoms: _152  and  _154
REMARK   64  A    between atoms: _154  and  _155
REMARK   65  A    between atoms: _154  and  _157
REMARK   66  A    between atoms: _157  and  _158
REMARK   67  A    between atoms: _161  and  _163
REMARK   68  A    between atoms: _163  and  _164
REMARK   69  A    between atoms: _163  and  _166
REMARK   70  A    between atoms: _166  and  _167
REMARK   71  A    between atoms: _169  and  _171
REMARK   72  A    between atoms: _171  and  _172
REMARK   73  A    between atoms: _171  and  _174
REMARK   74  A    between atoms: _177  and  _179
REMARK   75  A    between atoms: _179  and  _180
REMARK   76  A    between atoms: _179  and  _182
REMARK   77  A    between atoms: _185  and  _187
REMARK   78  A    between atoms: _187  and  _188
REMARK   79  A    between atoms: _187  and  _190
REMARK   80  A    between atoms: _190  and  _191
REMARK   81  A    between atoms: _195  and  _196
REMARK   82  A    between atoms: _201  and  _203
REMARK   83  A    between atoms: _203  and  _204
REMARK   84  A    between atoms: _203  and  _206
REMARK   85  A    between atoms: _206  and  _207
REMARK   86  A    between atoms: _212  and  _213
REMARK   87  A    between atoms: _215  and  _217
REMARK   88  A    between atoms: _217  and  _218
REMARK   89  A    between atoms: _217  and  _220
REMARK   90  A    between atoms: _220  and  _221
REMARK   91  A    between atoms: _221  and  _222
REMARK   92  A    between atoms: _224  and  _226
REMARK   93  A    between atoms: _226  and  _227
REMARK   94  A    between atoms: _226  and  _229
REMARK   95  A    between atoms: _229  and  _230
REMARK   96  A    between atoms: _230  and  _231
REMARK   97  A    between atoms: _231  and  _232
REMARK   98  A    between atoms: _232  and  _233
REMARK   99  A    between atoms: _237  and  _239
REMARK  100  A    between atoms: _239  and  _240
REMARK  101  A    between atoms: _239  and  _242
REMARK  102  A    between atoms: _242  and  _243
REMARK  103  A    between atoms: _248  and  _250
REMARK  104  A    between atoms: _250  and  _251
REMARK  105  A    between atoms: _253  and  _255
REMARK  106  A    between atoms: _255  and  _256
REMARK  107  A    between atoms: _255  and  _258
REMARK  108  A    between atoms: _258  and  _259
REMARK  109  A    between atoms: _262  and  _264
REMARK  110  A    between atoms: _264  and  _265
REMARK  111  A    between atoms: _264  and  _267
REMARK  112  A    between atoms: _267  and  _268
REMARK  113  A    between atoms: _271  and  _273
REMARK  114  A    between atoms: _273  and  _274
REMARK  115  A    between atoms: _273  and  _276
REMARK  116  A    between atoms: _276  and  _277
REMARK  117  A    between atoms: _277  and  _278
REMARK  118  A    between atoms: _278  and  _279
REMARK  119  A    between atoms: _288  and  _290
REMARK  120  A    between atoms: _290  and  _291
REMARK  121  A    between atoms: _290  and  _293
REMARK  122  A    between atoms: _293  and  _294
REMARK  123  A    between atoms: _299  and  _301
REMARK  124  A    between atoms: _301  and  _302
REMARK  125  A    between atoms: _301  and  _304
REMARK  126  A    between atoms: _304  and  _305
REMARK  127  A    between atoms: _311  and  _313
REMARK  128  A    between atoms: _313  and  _314
REMARK  129  A    between atoms: _313  and  _316
REMARK  130  A    between atoms: _316  and  _317
REMARK  131  A    between atoms: _322  and  _324
REMARK  132  A    between atoms: _324  and  _325
REMARK  133  A    between atoms: _324  and  _327
REMARK  134  A    between atoms: _327  and  _328
REMARK  135  A    between atoms: _333  and  _335
REMARK  136  A    between atoms: _335  and  _336
REMARK  137  A    between atoms: _335  and  _338
REMARK  138  A    between atoms: _338  and  _339
REMARK  139  A    between atoms: _344  and  _346
REMARK  140  A    between atoms: _346  and  _347
REMARK  141  A    between atoms: _346  and  _349
REMARK  142  A    between atoms: _349  and  _350
REMARK  143  A    between atoms: _353  and  _355
REMARK  144  A    between atoms: _355  and  _356
REMARK  145  A    between atoms: _359  and  _361
REMARK  146  A    between atoms: _361  and  _362
REMARK  147  A    between atoms: _365  and  _367
REMARK  148  A    between atoms: _367  and  _368
REMARK  149  A    between atoms: _367  and  _370
REMARK  150  A    between atoms: _370  and  _371
REMARK  151  A    between atoms: _371  and  _372
REMARK  152  A    between atoms: _372  and  _373
REMARK  153  A    between atoms: _382  and  _384
REMARK  154  A    between atoms: _384  and  _385
REMARK  155  A    between atoms: _384  and  _387
REMARK  156  A    between atoms: _387  and  _388
REMARK  157  A    between atoms: _393  and  _395
REMARK  158  A    between atoms: _395  and  _396
REMARK  159  A    between atoms: _395  and  _398
REMARK  160  A    between atoms: _400  and  _402
REMARK  161  A    between atoms: _402  and  _403
REMARK  162  A    between atoms: _402  and  _405
REMARK  163  A    between atoms: _405  and  _406
REMARK  164  A    between atoms: _406  and  _407
REMARK  165  A    between atoms: _409  and  _411
REMARK  166  A    between atoms: _411  and  _412
REMARK  167  A    between atoms: _411  and  _414
REMARK  168  A    between atoms: _414  and  _415
REMARK  169  A    between atoms: _418  and  _420
REMARK  170  A    between atoms: _420  and  _421
REMARK  171  A    between atoms: _420  and  _423
REMARK  172  A    between atoms: _423  and  _424
REMARK  173  A    between atoms: _427  and  _429
REMARK  174  A    between atoms: _429  and  _430
REMARK  175  A    between atoms: _429  and  _432
REMARK  176  A    between atoms: _432  and  _433
REMARK  177  A    between atoms: _433  and  _434
REMARK  178  A    between atoms: _434  and  _435
REMARK  179  A    between atoms: _435  and  _436
REMARK  180  A    between atoms: _440  and  _442
REMARK  181  A    between atoms: _442  and  _443
REMARK  182  A    between atoms: _442  and  _445
REMARK  183  A    between atoms: _448  and  _450
REMARK  184  A    between atoms: _450  and  _451
REMARK  185  A    between atoms: _454  and  _456
REMARK  186  A    between atoms: _456  and  _457
REMARK  187  A    between atoms: _456  and  _459
REMARK  188  A    between atoms: _459  and  _460
REMARK  189  A    between atoms: _463  and  _465
REMARK  190  A    between atoms: _465  and  _466
REMARK  191  A    between atoms: _465  and  _468
REMARK  192  A    between atoms: _468  and  _469
REMARK  193  A    between atoms: _475  and  _477
REMARK  194  A    between atoms: _477  and  _478
REMARK  195  A    between atoms: _477  and  _480
REMARK  196  A    between atoms: _480  and  _481
REMARK  197  A    between atoms: _484  and  _486
REMARK  198  A    between atoms: _486  and  _487
REMARK  199  A    between atoms: _490  and  _492
REMARK  200  A    between atoms: _492  and  _493
REMARK  201  A    between atoms: _492  and  _495
REMARK  202  A    between atoms: _495  and  _496
REMARK  203  A    between atoms: _496  and  _497
REMARK  204  A    between atoms: _497  and  _498
REMARK  205  A    between atoms: _507  and  _509
REMARK  206  A    between atoms: _509  and  _510
REMARK  207  A    between atoms: _509  and  _512
REMARK  208  A    between atoms: _512  and  _513
REMARK  209  A    between atoms: _516  and  _518
REMARK  210  A    between atoms: _518  and  _519
REMARK  211  A    between atoms: _518  and  _521
REMARK  212  A    between atoms: _521  and  _522
REMARK  213  A    between atoms: _522  and  _523
REMARK  214  A    between atoms: _525  and  _527
REMARK  215  A    between atoms: _527  and  _528
REMARK  216  A    between atoms: _527  and  _530
REMARK  217  A    between atoms: _530  and  _531
REMARK  218  A    between atoms: _536  and  _537
REMARK  219  A    between atoms: _539  and  _541
REMARK  220  A    between atoms: _541  and  _542
REMARK  221  A    between atoms: _541  and  _544
REMARK  222  A    between atoms: _544  and  _545
REMARK  223  A    between atoms: _548  and  _550
REMARK  224  A    between atoms: _550  and  _551
REMARK  225  A    between atoms: _550  and  _553
REMARK  226  A    between atoms: _553  and  _554
REMARK  227  A    between atoms: _559  and  _560
REMARK                            x       y       z     vdW  Elec       q    Type
REMARK                         _______ _______ _______ _____ _____    ______ ____
ROOT
ATOM      1  C   LEU A   1      21.864  82.983  16.307  0.00  0.00    +0.238 C 
ATOM      2  O   LEU A   1      20.772  83.008  16.877  0.00  0.00    -0.274 OA
ATOM      3  N   SER A   2      22.843  83.845  16.564  0.00  0.00    -0.296 N 
ATOM      4  H   SER A   2      23.745  83.741  16.057  0.00  0.00    +0.150 HD
ENDROOT
BRANCH   1   5
ATOM      5  CA  LEU A   1      22.181  81.922  15.254  0.00  0.00    +0.145 C 
BRANCH   5   6
ATOM      6  N   LEU A   1      21.924  80.583  15.777  0.00  0.00    -0.238 NA
ATOM      7  H   LEU A   1      21.237  79.970  15.293  0.00  0.00    +0.142 HD
ENDBRANCH   5   6
BRANCH   5   8
ATOM      8  CB  LEU A   1      21.400  82.189  13.957  0.00  0.00    +0.026 C 
BRANCH   8   9
ATOM      9  CG  LEU A   1      21.772  83.477  13.203  0.00  0.00    +0.002 C 
ATOM     10  CD2 LEU A   1      23.138  83.360  12.547  0.00  0.00    +0.000 C 
ATOM     11  CD1 LEU A   1      20.716  83.852  12.179  0.00  0.00    +0.000 C 
ENDBRANCH   8   9
ENDBRANCH   5   8
ENDBRANCH   1   5
BRANCH   3  12
ATOM     12  CA  SER A   2      22.703  84.929  17.526  0.00  0.00    +0.166 C 
BRANCH  12  13
ATOM     13  CB  SER A   2      22.199  86.211  16.856  0.00  0.00    +0.229 C 
ATOM     14  OG  SER A   2      22.156  86.318  15.631  0.00  0.00    -0.286 OA
ENDBRANCH  12  13
BRANCH  12  15
ATOM     15  C   SER A   2      24.050  85.191  18.202  0.00  0.00    +0.165 C 
BRANCH  15  16
ATOM     16  O   SER A   2      25.017  85.564  17.239  0.00  0.00    -0.380 OA
ATOM     17  H   SER A   2      25.122  84.834  16.579  0.00  0.00    +0.211 HD
ENDBRANCH  15  16
ENDBRANCH  12  15
ENDBRANCH   3  12
TORSDOF 8
REMARK  Name = ../refined-set-2016/2wgj/2wgj_pocket.pdb
REMARK  227 active torsions:
REMARK  status: ('A' for Active; 'I' for Inactive)
REMARK    1  A    between atoms: _1  and  _3
REMARK    2  A    between atoms: _3  and  _4
REMARK    3  A    between atoms: _3  and  _6
REMARK    4  A    between atoms: _9  and  _11
REMARK    5  A    between atoms: _11  and  _12
REMARK    6  A    between atoms: _11  and  _14
REMARK    7  A    between atoms: _14  and  _15
REMARK    8  A    between atoms: _18  and  _20
REMARK    9  A    between atoms: _20  and  _21
REMARK   10  A    between atoms: _23  and  _25
REMARK   11  A    between atoms: _25  and  _26
REMARK   12  A    between atoms: _25  and  _28
REMARK   13  A    between atoms: _28  and  _29
REMARK   14  A    between atoms: _29  and  _30
REMARK   15  A    between atoms: _30  and  _31
REMARK   16  A    between atoms: _40  and  _42
REMARK   17  A    between atoms: _42  and  _43
REMARK   18  A    between atoms: _45  and  _47
REMARK   19  A    between atoms: _47  and  _48
REMARK   20  A    between atoms: _50  and  _52
REMARK   21  A    between atoms: _52  and  _53
REMARK   22  A    between atoms: _52  and  _55
REMARK   23  A    between atoms: _57  and  _59
REMARK   24  A    between atoms: _59  and  _60
REMARK   25  A    between atoms: _59  and  _62
REMARK   26  A    between atoms: _65  and  _67
REMARK   27  A    between atoms: _67  and  _68
REMARK   28  A    between atoms: _67  and  _70
REMARK   29  A    between atoms: _70  and  _71
REMARK   30  A    between atoms: _76  and  _77
REMARK   31  A    between atoms: _79  and  _81
REMARK   32  A    between atoms: _81  and  _82
REMARK   33  A    between atoms: _81  and  _84
REMARK   34  A    between atoms: _84  and  _85
REMARK   35  A    between atoms: _90  and  _92
REMARK   36  A    between atoms: _92  and  _93
REMARK   37  A    between atoms: _92  and  _95
REMARK   38  A    between atoms: _95  and  _96
REMARK   39  A    between atoms: _101  and  _103
REMARK   40  A    between atoms: _103  and  _104
REMARK   41  A    between atoms: _103  and  _106
REMARK   42  A    between atoms: _108  and  _110
REMARK   43  A    between atoms: _110  and  _111
REMARK   44  A    between atoms: _114  and  _116
REMARK   45  A    between atoms: _116  and  _117
REMARK   46  A    between atoms: _116  and  _119
REMARK   47  A    between atoms: _122  and  _124
REMARK   48  A    between atoms: _124  and  _125
REMARK   49  A    between atoms: _124  and  _127
REMARK   50  A    between atoms: _127  and  _128
REMARK   51  A    between atoms: _128  and  _129
REMARK   52  A    between atoms: _129  and  _130
REMARK   53  A    between atoms: _130  and  _131
REMARK   54  A    between atoms: _135  and  _137
REMARK   55  A    between atoms: _137  and  _138
REMARK   56  A    between atoms: _137  and  _140
REMARK   57  A    between atoms: _140  and  _141
REMARK   58  A    between atoms: _143  and  _145
REMARK   59  A    between atoms: _145  and  _146
REMARK   60  A    between atoms: _145  and  _148
REMARK   61  A    between atoms: _148  and  _149
REMARK   62  A    between atoms: _149  and  _150
REMARK   63  A    between atoms: _152  and  _154
REMARK   64  A    between atoms: _154  and  _155
REMARK   65  A    between atoms: _154  and  _157
REMARK   66  A    between atoms: _157  and  _158
REMARK   67  A    between atoms: _161  and  _163
REMARK   68  A    between atoms: _163  and  _164
REMARK   69  A    between atoms: _163  and  _166
REMARK   70  A    between atoms: _166  and  _167
REMARK   71  A    between atoms: _169  and  _171
REMARK   72  A    between atoms: _171  and  _172
REMARK   73  A    between atoms: _171  and  _174
REMARK   74  A    between atoms: _177  and  _179
REMARK   75  A    between atoms: _179  and  _180
REMARK   76  A    between atoms: _179  and  _182
REMARK   77  A    between atoms: _185  and  _187
REMARK   78  A    between atoms: _187  and  _188
REMARK   79  A    between atoms: _187  and  _190
REMARK   80  A    between atoms: _190  and  _191
REMARK   81  A    between atoms: _195  and  _196
REMARK   82  A    between atoms: _201  and  _203
REMARK   83  A    between atoms: _203  and  _204
REMARK   84  A    between atoms: _203  and  _206
REMARK   85  A    between atoms: _206  and  _207
REMARK   86  A    between atoms: _212  and  _213
REMARK   87  A    between atoms: _215  and  _217
REMARK   88  A    between atoms: _217  and  _218
REMARK   89  A    between atoms: _217  and  _220
REMARK   90  A    between atoms: _220  and  _221
REMARK   91  A    between atoms: _221  and  _222
REMARK   92  A    between atoms: _224  and  _226
REMARK   93  A    between atoms: _226  and  _227
REMARK   94  A    between atoms: _226  and  _229
REMARK   95  A    between atoms: _229  and  _230
REMARK   96  A    between atoms: _230  and  _231
REMARK   97  A    between atoms: _231  and  _232
REMARK   98  A    between atoms: _232  and  _233
REMARK   99  A    between atoms: _237  and  _239
REMARK  100  A    between atoms: _239  and  _240
REMARK  101  A    between atoms: _239  and  _242
REMARK  102  A    between atoms: _242  and  _243
REMARK  103  A    between atoms: _248  and  _250
REMARK  104  A    between atoms: _250  and  _251
REMARK  105  A    between atoms: _253  and  _255
REMARK  106  A    between atoms: _255  and  _256
REMARK  107  A    between atoms: _255  and  _258
REMARK  108  A    between atoms: _258  and  _259
REMARK  109  A    between atoms: _262  and  _264
REMARK  110  A    between atoms: _264  and  _265
REMARK  111  A    between atoms: _264  and  _267
REMARK  112  A    between atoms: _267  and  _268
REMARK  113  A    between atoms: _271  and  _273
REMARK  114  A    between atoms: _273  and  _274
REMARK  115  A    between atoms: _273  and  _276
REMARK  116  A    between atoms: _276  and  _277
REMARK  117  A    between atoms: _277  and  _278
REMARK  118  A    between atoms: _278  and  _279
REMARK  119  A    between atoms: _288  and  _290
REMARK  120  A    between atoms: _290  and  _291
REMARK  121  A    between atoms: _290  and  _293
REMARK  122  A    between atoms: _293  and  _294
REMARK  123  A    between atoms: _299  and  _301
REMARK  124  A    between atoms: _301  and  _302
REMARK  125  A    between atoms: _301  and  _304
REMARK  126  A    between atoms: _304  and  _305
REMARK  127  A    between atoms: _311  and  _313
REMARK  128  A    between atoms: _313  and  _314
REMARK  129  A    between atoms: _313  and  _316
REMARK  130  A    between atoms: _316  and  _317
REMARK  131  A    between atoms: _322  and  _324
REMARK  132  A    between atoms: _324  and  _325
REMARK  133  A    between atoms: _324  and  _327
REMARK  134  A    between atoms: _327  and  _328
REMARK  135  A    between atoms: _333  and  _335
REMARK  136  A    between atoms: _335  and  _336
REMARK  137  A    between atoms: _335  and  _338
REMARK  138  A    between atoms: _338  and  _339
REMARK  139  A    between atoms: _344  and  _346
REMARK  140  A    between atoms: _346  and  _347
REMARK  141  A    between atoms: _346  and  _349
REMARK  142  A    between atoms: _349  and  _350
REMARK  143  A    between atoms: _353  and  _355
REMARK  144  A    between atoms: _355  and  _356
REMARK  145  A    between atoms: _359  and  _361
REMARK  146  A    between atoms: _361  and  _362
REMARK  147  A    between atoms: _365  and  _367
REMARK  148  A    between atoms: _367  and  _368
REMARK  149  A    between atoms: _367  and  _370
REMARK  150  A    between atoms: _370  and  _371
REMARK  151  A    between atoms: _371  and  _372
REMARK  152  A    between atoms: _372  and  _373
REMARK  153  A    between atoms: _382  and  _384
REMARK  154  A    between atoms: _384  and  _385
REMARK  155  A    between atoms: _384  and  _387
REMARK  156  A    between atoms: _387  and  _388
REMARK  157  A    between atoms: _393  and  _395
REMARK  158  A    between atoms: _395  and  _396
REMARK  159  A    between atoms: _395  and  _398
REMARK  160  A    between atoms: _400  and  _402
REMARK  161  A    between atoms: _402  and  _403
REMARK  162  A    between atoms: _402  and  _405
REMARK  163  A    between atoms: _405  and  _406
REMARK  164  A    between atoms: _406  and  _407
REMARK  165  A    between atoms: _409  and  _411
REMARK  166  A    between atoms: _411  and  _412
REMARK  167  A    between atoms: _411  and  _414
REMARK  168  A    between atoms: _414  and  _415
REMARK  169  A    between atoms: _418  and  _420
REMARK  170  A    between atoms: _420  and  _421
REMARK  171  A    between atoms: _420  and  _423
REMARK  172  A    between atoms: _423  and  _424
REMARK  173  A    between atoms: _427  and  _429
REMARK  174  A    between atoms: _429  and  _430
REMARK  175  A    between atoms: _429  and  _432
REMARK  176  A    between atoms: _432  and  _433
REMARK  177  A    between atoms: _433  and  _434
REMARK  178  A    between atoms: _434  and  _435
REMARK  179  A    between atoms: _435  and  _436
REMARK  180  A    between atoms: _440  and  _442
REMARK  181  A    between atoms: _442  and  _443
REMARK  182  A    between atoms: _442  and  _445
REMARK  183  A    between atoms: _448  and  _450
REMARK  184  A    between atoms: _450  and  _451
REMARK  185  A    between atoms: _454  and  _456
REMARK  186  A    between atoms: _456  and  _457
REMARK  187  A    between atoms: _456  and  _459
REMARK  188  A    between atoms: _459  and  _460
REMARK  189  A    between atoms: _463  and  _465
REMARK  190  A    between atoms: _465  and  _466
REMARK  191  A    between atoms: _465  and  _468
REMARK  192  A    between atoms: _468  and  _469
REMARK  193  A    between atoms: _475  and  _477
REMARK  194  A    between atoms: _477  and  _478
REMARK  195  A    between atoms: _477  and  _480
REMARK  196  A    between atoms: _480  and  _481
REMARK  197  A    between atoms: _484  and  _486
REMARK  198  A    between atoms: _486  and  _487
REMARK  199  A    between atoms: _490  and  _492
REMARK  200  A    between atoms: _492  and  _493
REMARK  201  A    between atoms: _492  and  _495
REMARK  202  A    between atoms: _495  and  _496
REMARK  203  A    between atoms: _496  and  _497
REMARK  204  A    between atoms: _497  and  _498
REMARK  205  A    between atoms: _507  and  _509
REMARK  206  A    between atoms: _509  and  _510
REMARK  207  A    between atoms: _509  and  _512
REMARK  208  A    between atoms: _512  and  _513
REMARK  209  A    between atoms: _516  and  _518
REMARK  210  A    between atoms: _518  and  _519
REMARK  211  A    between atoms: _518  and  _521
REMARK  212  A    between atoms: _521  and  _522
REMARK  213  A    between atoms: _522  and  _523
REMARK  214  A    between atoms: _525  and  _527
REMARK  215  A    between atoms: _527  and  _528
REMARK  216  A    between atoms: _527  and  _530
REMARK  217  A    between atoms: _530  and  _531
REMARK  218  A    between atoms: _536  and  _537
REMARK  219  A    between atoms: _539  and  _541
REMARK  220  A    between atoms: _541  and  _542
REMARK  221  A    between atoms: _541  and  _544
REMARK  222  A    between atoms: _544  and  _545
REMARK  223  A    between atoms: _548  and  _550
REMARK  224  A    between atoms: _550  and  _551
REMARK  225  A    between atoms: _550  and  _553
REMARK  226  A    between atoms: _553  and  _554
REMARK  227  A    between atoms: _559  and  _560
REMARK                            x       y       z     vdW  Elec       q    Type
REMARK                         _______ _______ _______ _____ _____    ______ ____
ROOT
ATOM      1  CA  HIS A   8      28.341  79.332   3.364  0.00  0.00    +0.155 C 
ENDROOT
BRANCH   1   3
ATOM      2  C   LYS A   7      29.179  81.587   3.696  0.00  0.00    +0.241 C 
ATOM      3  N   HIS A   8      28.743  80.445   4.217  0.00  0.00    -0.297 N 
ATOM      4  H   HIS A   8      28.687  80.343   5.250  0.00  0.00    +0.150 HD
ATOM      5  O   LYS A   7      29.212  81.796   2.484  0.00  0.00    -0.273 OA
BRANCH   2   6
ATOM      6  CA  LYS A   7      29.654  82.653   4.678  0.00  0.00    +0.149 C 
BRANCH   6   8
ATOM      7  C   MET A   6      27.616  82.849   6.024  0.00  0.00    +0.241 C 
ATOM      8  N   LYS A   7      28.931  82.656   5.945  0.00  0.00    -0.297 N 
ATOM      9  H   LYS A   7      29.465  82.501   6.824  0.00  0.00    +0.150 HD
ATOM     10  O   MET A   6      26.880  82.863   5.044  0.00  0.00    -0.273 OA
BRANCH   7  11
ATOM     11  CA  MET A   6      27.054  83.051   7.426  0.00  0.00    +0.149 C 
BRANCH  11  14
ATOM     12  C   TYR A   5      27.504  85.300   8.214  0.00  0.00    +0.241 C 
ATOM     13  O   TYR A   5      28.576  84.958   8.702  0.00  0.00    -0.273 OA
ATOM     14  N   MET A   6      26.690  84.448   7.608  0.00  0.00    -0.297 N 
ATOM     15  H   MET A   6      25.772  84.785   7.255  0.00  0.00    +0.150 HD
BRANCH  12  16
ATOM     16  CA  TYR A   5      27.023  86.755   8.282  0.00  0.00    +0.153 C 
BRANCH  16  19
ATOM     17  C   PRO A   4      26.078  86.908  10.490  0.00  0.00    +0.241 C 
ATOM     18  O   PRO A   4      25.128  86.193  10.167  0.00  0.00    -0.273 OA
ATOM     19  N   TYR A   5      27.036  87.262   9.641  0.00  0.00    -0.297 N 
ATOM     20  H   TYR A   5      27.795  87.902   9.950  0.00  0.00    +0.150 HD
BRANCH  17  26
ATOM     21  C   LEU A   3      24.131  88.799  11.743  0.00  0.00    +0.244 C 
ATOM     22  N   PRO A   4      24.824  87.852  12.384  0.00  0.00    -0.272 N 
ATOM     23  CD  PRO A   4      24.388  87.082  13.562  0.00  0.00    +0.094 C 
ATOM     24  CG  PRO A   4      25.644  86.463  14.061  0.00  0.00    +0.024 C 
ATOM     25  CB  PRO A   4      26.542  86.321  12.894  0.00  0.00    +0.031 C 
ATOM     26  CA  PRO A   4      26.157  87.446  11.924  0.00  0.00    +0.152 C 
ATOM     27  O   LEU A   3      24.584  89.419  10.782  0.00  0.00    -0.273 OA
BRANCH  21  28
ATOM     28  CA  LEU A   3      22.713  89.085  12.225  0.00  0.00    +0.149 C 
BRANCH  28  31
ATOM     29  C   VAL A   2      21.826  91.311  12.683  0.00  0.00    +0.241 C 
ATOM     30  O   VAL A   2      21.721  91.085  13.891  0.00  0.00    -0.273 OA
ATOM     31  N   LEU A   3      22.309  90.425  11.818  0.00  0.00    -0.297 N 
ATOM     32  H   LEU A   3      22.402  90.697  10.818  0.00  0.00    +0.150 HD
BRANCH  29  33
ATOM     33  CA  VAL A   2      21.379  92.648  12.089  0.00  0.00    +0.148 C 
BRANCH  33  35
ATOM     34  C   VAL A   1      19.006  92.754  11.506  0.00  0.00    +0.238 C 
ATOM     35  N   VAL A   2      19.976  92.887  12.405  0.00  0.00    -0.297 N 
ATOM     36  H   VAL A   2      19.724  93.173  13.373  0.00  0.00    +0.150 HD
ATOM     37  O   VAL A   1      19.193  92.305  10.371  0.00  0.00    -0.274 OA
BRANCH  34  38
ATOM     38  CA  VAL A   1      17.610  93.203  11.965  0.00  0.00    +0.145 C 
BRANCH  38  39
ATOM     39  CB  VAL A   1      16.614  92.010  12.021  0.00  0.00    +0.025 C 
ATOM     40  CG2 VAL A   1      17.220  90.818  12.751  0.00  0.00    +0.002 C 
ATOM     41  CG1 VAL A   1      15.311  92.441  12.698  0.00  0.00    +0.002 C 
ENDBRANCH  38  39
BRANCH  38  42
ATOM     42  N   VAL A   1      17.115  94.285  11.114  0.00  0.00    -0.238 NA
ATOM     43  H   VAL A   1      16.649  94.046  10.216  0.00  0.00    +0.142 HD
ENDBRANCH  38  42
ENDBRANCH  34  38
ENDBRANCH  33  35
BRANCH  33  44
ATOM     44  CB  VAL A   2      22.279  93.808  12.589  0.00  0.00    +0.027 C 
ATOM     45  CG2 VAL A   2      21.720  95.163  12.143  0.00  0.00    +0.002 C 
ATOM     46  CG1 VAL A   2      23.737  93.639  12.115  0.00  0.00    +0.002 C 
ENDBRANCH  33  44
ENDBRANCH  29  33
ENDBRANCH  28  31
BRANCH  28  47
ATOM     47  CB  LEU A   3      21.759  88.039  11.641  0.00  0.00    +0.029 C 
BRANCH  47  48
ATOM     48  CG  LEU A   3      20.247  88.226  11.762  0.00  0.00    +0.002 C 
ATOM     49  CD2 LEU A   3      19.732  87.766  13.125  0.00  0.00    +0.000 C 
ATOM     50  CD1 LEU A   3      19.536  87.490  10.635  0.00  0.00    +0.000 C 
ENDBRANCH  47  48
ENDBRANCH  28  47
ENDBRANCH  21  28
ENDBRANCH  17  26
ENDBRANCH  16  19
BRANCH  16  51
ATOM     51  CB  TYR A   5      27.844  87.637   7.340  0.00  0.00    +0.055 C 
BRANCH  51  52
ATOM     52  CG  TYR A   5      27.747  87.179   5.906  0.00  0.00    -0.020 A 
ATOM     53  CD2 TYR A   5      28.854  86.641   5.246  0.00  0.00    -0.001 A 
ATOM     54  CE2 TYR A   5      28.764  86.207   3.931  0.00  0.00    +0.036 A 
ATOM     55  CZ  TYR A   5      27.553  86.299   3.267  0.00  0.00    +0.134 A 
ATOM     56  CE1 TYR A   5      26.437  86.819   3.904  0.00  0.00    +0.036 A 
ATOM     57  CD1 TYR A   5      26.539  87.252   5.217  0.00  0.00    -0.001 A 
BRANCH  55  58
ATOM     58  OH  TYR A   5      27.447  85.869   1.961  0.00  0.00    -0.506 OA
ATOM     59  HH  TYR A   5      26.519  86.007   1.644  0.00  0.00    +0.292 HD
ENDBRANCH  55  58
ENDBRANCH  51  52
ENDBRANCH  16  51
ENDBRANCH  12  16
ENDBRANCH  11  14
BRANCH  11  60
ATOM     60  CB  MET A   6      25.843  82.167   7.678  0.00  0.00    +0.041 C 
BRANCH  60  61
ATOM     61  CG  MET A   6      25.199  82.429   9.008  0.00  0.00    +0.060 C 
BRANCH  61  62
ATOM     62  SD  MET A   6      26.140  81.620  10.286  0.00  0.00    -0.139 S 
ATOM     63  CE  MET A   6      26.805  83.013  11.163  0.00  0.00    +0.069 C 
ENDBRANCH  61  62
ENDBRANCH  60  61
ENDBRANCH  11  60
ENDBRANCH   7  11
ENDBRANCH   6   8
BRANCH   6  64
ATOM     64  CB  LYS A   7      31.160  82.501   4.938  0.00  0.00    +0.029 C 
BRANCH  64  65
ATOM     65  CG  LYS A   7      31.923  81.744   3.854  0.00  0.00    +0.000 C 
BRANCH  65  66
ATOM     66  CD  LYS A   7      33.321  82.326   3.658  0.00  0.00    -0.024 C 
BRANCH  66  67
ATOM     67  CE  LYS A   7      34.141  81.472   2.690  0.00  0.00    -0.086 C 
BRANCH  67  68
ATOM     68  NZ  LYS A   7      35.177  80.677   3.415  0.00  0.00    +0.380 N 
ATOM     69  HZ1 LYS A   7      34.713  80.048   4.101  0.00  0.00    -0.089 HD
ATOM     70  HZ2 LYS A   7      35.821  81.323   3.915  0.00  0.00    -0.089 HD
ATOM     71  HZ3 LYS A   7      35.717  80.108   2.732  0.00  0.00    -0.089 HD
ENDBRANCH  67  68
ENDBRANCH  66  67
ENDBRANCH  65  66
ENDBRANCH  64  65
ENDBRANCH   6  64
ENDBRANCH   2   6
ENDBRANCH   1   3
BRANCH   1  72
ATOM     72  C   HIS A   8      26.822  79.227   3.179  0.00  0.00    +0.241 C 
ATOM     73  N   GLY A   9      26.084  80.254   3.602  0.00  0.00    -0.295 N 
ATOM     74  H   GLY A   9      26.545  81.042   4.100  0.00  0.00    +0.150 HD
ATOM     75  O   HIS A   8      26.325  78.234   2.647  0.00  0.00    -0.273 OA
BRANCH  73  76
ATOM     76  CA  GLY A   9      24.645  80.293   3.380  0.00  0.00    +0.176 C 
BRANCH  76  77
ATOM     77  C   GLY A   9      23.942  79.154   4.091  0.00  0.00    +0.243 C 
ATOM     78  O   GLY A   9      24.438  78.667   5.093  0.00  0.00    -0.273 OA
ATOM     79  N   ASP A  10      22.792  78.732   3.584  0.00  0.00    -0.296 N 
ATOM     80  H   ASP A  10      22.436  79.158   2.705  0.00  0.00    +0.150 HD
BRANCH  79  81
ATOM     81  CA  ASP A  10      22.016  77.681   4.236  0.00  0.00    +0.160 C 
BRANCH  81  82
ATOM     82  C   ASP A  10      22.535  76.290   3.903  0.00  0.00    +0.241 C 
ATOM     83  N   LEU A  11      22.360  75.390   4.861  0.00  0.00    -0.297 N 
ATOM     84  H   LEU A  11      21.892  75.693   5.739  0.00  0.00    +0.150 HD
ATOM     85  O   ASP A  10      23.046  76.040   2.812  0.00  0.00    -0.273 OA
BRANCH  83  86
ATOM     86  CA  LEU A  11      22.782  74.012   4.755  0.00  0.00    +0.149 C 
BRANCH  86  87
ATOM     87  C   LEU A  11      22.258  73.319   3.509  0.00  0.00    +0.241 C 
ATOM     88  N   ARG A  12      21.053  73.681   3.065  0.00  0.00    -0.297 N 
ATOM     89  H   ARG A  12      20.534  74.446   3.541  0.00  0.00    +0.150 HD
ATOM     90  O   LEU A  11      22.945  72.467   2.948  0.00  0.00    -0.273 OA
BRANCH  88  91
ATOM     91  CA  ARG A  12      20.457  73.001   1.905  0.00  0.00    +0.149 C 
BRANCH  91  92
ATOM     92  C   ARG A  12      21.184  73.298   0.599  0.00  0.00    +0.241 C 
ATOM     93  N   ASN A  13      21.393  74.576   0.309  0.00  0.00    -0.297 N 
ATOM     94  H   ASN A  13      21.012  75.315   0.934  0.00  0.00    +0.150 HD
ATOM     95  O   ARG A  12      21.547  72.377  -0.135  0.00  0.00    -0.273 OA
BRANCH  93  96
ATOM     96  CA  ASN A  13      22.152  74.953  -0.878  0.00  0.00    +0.158 C 
BRANCH  96  97
ATOM     97  C   ASN A  13      23.613  74.503  -0.786  0.00  0.00    +0.241 C 
ATOM     98  N   PHE A  14      24.187  74.566   0.415  0.00  0.00    -0.298 N 
ATOM     99  H   PHE A  14      23.667  74.976   1.217  0.00  0.00    +0.150 HD
ATOM    100  O   ASN A  13      24.196  74.080  -1.783  0.00  0.00    -0.273 OA
BRANCH  98 101
ATOM    101  CA  PHE A  14      25.543  74.062   0.610  0.00  0.00    +0.141 C 
BRANCH 101 102
ATOM    102  C   PHE A  14      25.695  72.593   0.167  0.00  0.00    +0.227 C 
ATOM    103  O   PHE A  14      26.574  72.279  -0.636  0.00  0.00    -0.286 OA
ENDBRANCH 101 102
BRANCH 101 104
ATOM    104  CB  PHE A  14      26.026  74.225   2.051  0.00  0.00    +0.054 C 
BRANCH 104 105
ATOM    105  CG  PHE A  14      27.458  73.799   2.244  0.00  0.00    -0.020 A 
ATOM    106  CD2 PHE A  14      27.768  72.486   2.596  0.00  0.00    -0.004 A 
ATOM    107  CE2 PHE A  14      29.095  72.079   2.760  0.00  0.00    -0.000 A 
ATOM    108  CZ  PHE A  14      30.126  72.990   2.556  0.00  0.00    -0.000 A 
ATOM    109  CE1 PHE A  14      29.832  74.308   2.187  0.00  0.00    -0.000 A 
ATOM    110  CD1 PHE A  14      28.499  74.700   2.029  0.00  0.00    -0.004 A 
ENDBRANCH 104 105
ENDBRANCH 101 104
ENDBRANCH  98 101
ENDBRANCH  96  97
BRANCH  96 111
ATOM    111  CB  ASN A  13      22.045  76.454  -1.157  0.00  0.00    +0.114 C 
BRANCH 111 112
ATOM    112  CG  ASN A  13      20.721  76.833  -1.786  0.00  0.00    +0.222 C 
ATOM    113  ND2 ASN A  13      20.078  77.852  -1.234  0.00  0.00    -0.329 N 
ATOM    114 HD21 ASN A  13      20.487  78.342  -0.413  0.00  0.00    +0.145 HD
ATOM    115 HD22 ASN A  13      19.164  78.162  -1.622  0.00  0.00    +0.145 HD
ATOM    116  OD1 ASN A  13      20.281  76.214  -2.764  0.00  0.00    -0.275 OA
ENDBRANCH 111 112
ENDBRANCH  96 111
ENDBRANCH  93  96
ENDBRANCH  91  92
BRANCH  91 117
ATOM    117  CB  ARG A  12      18.954  73.267   1.763  0.00  0.00    +0.033 C 
BRANCH 117 118
ATOM    118  CG  ARG A  12      18.272  72.192   0.951  0.00  0.00    +0.045 C 
BRANCH 118 119
ATOM    119  CD  ARG A  12      16.927  72.561   0.393  0.00  0.00    +0.174 C 
BRANCH 119 120
ATOM    120  NE  ARG A  12      16.497  71.598  -0.616  0.00  0.00    -0.265 N 
ATOM    121  HE  ARG A  12      16.704  70.594  -0.442  0.00  0.00    +0.259 HD
ATOM    122  CZ  ARG A  12      15.860  71.908  -1.742  0.00  0.00    +0.342 C 
ATOM    123  NH2 ARG A  12      15.547  73.176  -2.026  0.00  0.00    -0.292 N 
ATOM    124 HH21 ARG A  12      15.802  73.936  -1.363  0.00  0.00    +0.255 HD
ATOM    125 HH22 ARG A  12      15.049  73.403  -2.910  0.00  0.00    +0.255 HD
ATOM    126  NH1 ARG A  12      15.521  70.939  -2.582  0.00  0.00    -0.292 N 
ATOM    127 HH11 ARG A  12      15.754  69.951  -2.357  0.00  0.00    +0.255 HD
ATOM    128 HH12 ARG A  12      15.023  71.168  -3.466  0.00  0.00    +0.255 HD
ENDBRANCH 119 120
ENDBRANCH 118 119
ENDBRANCH 117 118
ENDBRANCH  91 117
ENDBRANCH  88  91
ENDBRANCH  86  87
BRANCH  86 129
ATOM    129  CB  LEU A  11      22.316  73.257   6.000  0.00  0.00    +0.029 C 
BRANCH 129 130
ATOM    130  CG  LEU A  11      23.093  72.068   6.541  0.00  0.00    +0.002 C 
ATOM    131  CD2 LEU A  11      22.549  71.780   7.944  0.00  0.00    +0.000 C 
ATOM    132  CD1 LEU A  11      24.602  72.332   6.584  0.00  0.00    +0.000 C 
ENDBRANCH 129 130
ENDBRANCH  86 129
ENDBRANCH  83  86
ENDBRANCH  81  82
BRANCH  81 133
ATOM    133  CB  ASP A  10      20.543  77.774   3.856  0.00  0.00    +0.143 C 
BRANCH 133 134
ATOM    134  CG  ASP A  10      20.316  77.481   2.400  0.00  0.00    +0.367 C 
ATOM    135  OD2 ASP A  10      19.940  76.357   1.987  0.00  0.00    -0.246 OA
ATOM    136  OD1 ASP A  10      20.556  78.394   1.573  0.00  0.00    -0.246 OA
ENDBRANCH 133 134
ENDBRANCH  81 133
ENDBRANCH  79  81
ENDBRANCH  76  77
ENDBRANCH  73  76
ENDBRANCH   1  72
BRANCH   1 137
ATOM    137  CB  HIS A   8      28.943  78.018   3.882  0.00  0.00    +0.076 C 
BRANCH 137 138
ATOM    138  CG  HIS A   8      30.442  78.018   3.920  0.00  0.00    +0.082 A 
ATOM    139  ND1 HIS A   8      31.157  78.160   5.091  0.00  0.00    -0.227 NA
ATOM    140  CE1 HIS A   8      32.450  78.136   4.822  0.00  0.00    +0.199 A 
ATOM    141  NE2 HIS A   8      32.602  77.992   3.517  0.00  0.00    -0.221 NA
ATOM    142  CD2 HIS A   8      31.361  77.921   2.929  0.00  0.00    +0.115 A 
ENDBRANCH 137 138
ENDBRANCH   1 137
TORSDOF 56
REMARK  Name = ../refined-set-2016/2wgj/2wgj_pocket.pdb
REMARK  227 active torsions:
REMARK  status: ('A' for Active; 'I' for Inactive)
REMARK    1  A    between atoms: _1  and  _3
REMARK    2  A    between atoms: _3  and  _4
REMARK    3  A    between atoms: _3  and  _6
REMARK    4  A    between atoms: _9  and  _11
REMARK    5  A    between atoms: _11  and  _12
REMARK    6  A    between atoms: _11  and  _14
REMARK    7  A    between atoms: _14  and  _15
REMARK    8  A    between atoms: _18  and  _20
REMARK    9  A    between atoms: _20  and  _21
REMARK   10  A    between atoms: _23  and  _25
REMARK   11  A    between atoms: _25  and  _26
REMARK   12  A    between atoms: _25  and  _28
REMARK   13  A    between atoms: _28  and  _29
REMARK   14  A    between atoms: _29  and  _30
REMARK   15  A    between atoms: _30  and  _31
REMARK   16  A    between atoms: _40  and  _42
REMARK   17  A    between atoms: _42  and  _43
REMARK   18  A    between atoms: _45  and  _47
REMARK   19  A    between atoms: _47  and  _48
REMARK   20  A    between atoms: _50  and  _52
REMARK   21  A    between atoms: _52  and  _53
REMARK   22  A    between atoms: _52  and  _55
REMARK   23  A    between atoms: _57  and  _59
REMARK   24  A    between atoms: _59  and  _60
REMARK   25  A    between atoms: _59  and  _62
REMARK   26  A    between atoms: _65  and  _67
REMARK   27  A    between atoms: _67  and  _68
REMARK   28  A    between atoms: _67  and  _70
REMARK   29  A    between atoms: _70  and  _71
REMARK   30  A    between atoms: _76  and  _77
REMARK   31  A    between atoms: _79  and  _81
REMARK   32  A    between atoms: _81  and  _82
REMARK   33  A    between atoms: _81  and  _84
REMARK   34  A    between atoms: _84  and  _85
REMARK   35  A    between atoms: _90  and  _92
REMARK   36  A    between atoms: _92  and  _93
REMARK   37  A    between atoms: _92  and  _95
REMARK   38  A    between atoms: _95  and  _96
REMARK   39  A    between atoms: _101  and  _103
REMARK   40  A    between atoms: _103  and  _104
REMARK   41  A    between atoms: _103  and  _106
REMARK   42  A    between atoms: _108  and  _110
REMARK   43  A    between atoms: _110  and  _111
REMARK   44  A    between atoms: _114  and  _116
REMARK   45  A    between atoms: _116  and  _117
REMARK   46  A    between atoms: _116  and  _119
REMARK   47  A    between atoms: _122  and  _124
REMARK   48  A    between atoms: _124  and  _125
REMARK   49  A    between atoms: _124  and  _127
REMARK   50  A    between atoms: _127  and  _128
REMARK   51  A    between atoms: _128  and  _129
REMARK   52  A    between atoms: _129  and  _130
REMARK   53  A    between atoms: _130  and  _131
REMARK   54  A    between atoms: _135  and  _137
REMARK   55  A    between atoms: _137  and  _138
REMARK   56  A    between atoms: _137  and  _140
REMARK   57  A    between atoms: _140  and  _141
REMARK   58  A    between atoms: _143  and  _145
REMARK   59  A    between atoms: _145  and  _146
REMARK   60  A    between atoms: _145  and  _148
REMARK   61  A    between atoms: _148  and  _149
REMARK   62  A    between atoms: _149  and  _150
REMARK   63  A    between atoms: _152  and  _154
REMARK   64  A    between atoms: _154  and  _155
REMARK   65  A    between atoms: _154  and  _157
REMARK   66  A    between atoms: _157  and  _158
REMARK   67  A    between atoms: _161  and  _163
REMARK   68  A    between atoms: _163  and  _164
REMARK   69  A    between atoms: _163  and  _166
REMARK   70  A    between atoms: _166  and  _167
REMARK   71  A    between atoms: _169  and  _171
REMARK   72  A    between atoms: _171  and  _172
REMARK   73  A    between atoms: _171  and  _174
REMARK   74  A    between atoms: _177  and  _179
REMARK   75  A    between atoms: _179  and  _180
REMARK   76  A    between atoms: _179  and  _182
REMARK   77  A    between atoms: _185  and  _187
REMARK   78  A    between atoms: _187  and  _188
REMARK   79  A    between atoms: _187  and  _190
REMARK   80  A    between atoms: _190  and  _191
REMARK   81  A    between atoms: _195  and  _196
REMARK   82  A    between atoms: _201  and  _203
REMARK   83  A    between atoms: _203  and  _204
REMARK   84  A    between atoms: _203  and  _206
REMARK   85  A    between atoms: _206  and  _207
REMARK   86  A    between atoms: _212  and  _213
REMARK   87  A    between atoms: _215  and  _217
REMARK   88  A    between atoms: _217  and  _218
REMARK   89  A    between atoms: _217  and  _220
REMARK   90  A    between atoms: _220  and  _221
REMARK   91  A    between atoms: _221  and  _222
REMARK   92  A    between atoms: _224  and  _226
REMARK   93  A    between atoms: _226  and  _227
REMARK   94  A    between atoms: _226  and  _229
REMARK   95  A    between atoms: _229  and  _230
REMARK   96  A    between atoms: _230  and  _231
REMARK   97  A    between atoms: _231  and  _232
REMARK   98  A    between atoms: _232  and  _233
REMARK   99  A    between atoms: _237  and  _239
REMARK  100  A    between atoms: _239  and  _240
REMARK  101  A    between atoms: _239  and  _242
REMARK  102  A    between atoms: _242  and  _243
REMARK  103  A    between atoms: _248  and  _250
REMARK  104  A    between atoms: _250  and  _251
REMARK  105  A    between atoms: _253  and  _255
REMARK  106  A    between atoms: _255  and  _256
REMARK  107  A    between atoms: _255  and  _258
REMARK  108  A    between atoms: _258  and  _259
REMARK  109  A    between atoms: _262  and  _264
REMARK  110  A    between atoms: _264  and  _265
REMARK  111  A    between atoms: _264  and  _267
REMARK  112  A    between atoms: _267  and  _268
REMARK  113  A    between atoms: _271  and  _273
REMARK  114  A    between atoms: _273  and  _274
REMARK  115  A    between atoms: _273  and  _276
REMARK  116  A    between atoms: _276  and  _277
REMARK  117  A    between atoms: _277  and  _278
REMARK  118  A    between atoms: _278  and  _279
REMARK  119  A    between atoms: _288  and  _290
REMARK  120  A    between atoms: _290  and  _291
REMARK  121  A    between atoms: _290  and  _293
REMARK  122  A    between atoms: _293  and  _294
REMARK  123  A    between atoms: _299  and  _301
REMARK  124  A    between atoms: _301  and  _302
REMARK  125  A    between atoms: _301  and  _304
REMARK  126  A    between atoms: _304  and  _305
REMARK  127  A    between atoms: _311  and  _313
REMARK  128  A    between atoms: _313  and  _314
REMARK  129  A    between atoms: _313  and  _316
REMARK  130  A    between atoms: _316  and  _317
REMARK  131  A    between atoms: _322  and  _324
REMARK  132  A    between atoms: _324  and  _325
REMARK  133  A    between atoms: _324  and  _327
REMARK  134  A    between atoms: _327  and  _328
REMARK  135  A    between atoms: _333  and  _335
REMARK  136  A    between atoms: _335  and  _336
REMARK  137  A    between atoms: _335  and  _338
REMARK  138  A    between atoms: _338  and  _339
REMARK  139  A    between atoms: _344  and  _346
REMARK  140  A    between atoms: _346  and  _347
REMARK  141  A    between atoms: _346  and  _349
REMARK  142  A    between atoms: _349  and  _350
REMARK  143  A    between atoms: _353  and  _355
REMARK  144  A    between atoms: _355  and  _356
REMARK  145  A    between atoms: _359  and  _361
REMARK  146  A    between atoms: _361  and  _362
REMARK  147  A    between atoms: _365  and  _367
REMARK  148  A    between atoms: _367  and  _368
REMARK  149  A    between atoms: _367  and  _370
REMARK  150  A    between atoms: _370  and  _371
REMARK  151  A    between atoms: _371  and  _372
REMARK  152  A    between atoms: _372  and  _373
REMARK  153  A    between atoms: _382  and  _384
REMARK  154  A    between atoms: _384  and  _385
REMARK  155  A    between atoms: _384  and  _387
REMARK  156  A    between atoms: _387  and  _388
REMARK  157  A    between atoms: _393  and  _395
REMARK  158  A    between atoms: _395  and  _396
REMARK  159  A    between atoms: _395  and  _398
REMARK  160  A    between atoms: _400  and  _402
REMARK  161  A    between atoms: _402  and  _403
REMARK  162  A    between atoms: _402  and  _405
REMARK  163  A    between atoms: _405  and  _406
REMARK  164  A    between atoms: _406  and  _407
REMARK  165  A    between atoms: _409  and  _411
REMARK  166  A    between atoms: _411  and  _412
REMARK  167  A    between atoms: _411  and  _414
REMARK  168  A    between atoms: _414  and  _415
REMARK  169  A    between atoms: _418  and  _420
REMARK  170  A    between atoms: _420  and  _421
REMARK  171  A    between atoms: _420  and  _423
REMARK  172  A    between atoms: _423  and  _424
REMARK  173  A    between atoms: _427  and  _429
REMARK  174  A    between atoms: _429  and  _430
REMARK  175  A    between atoms: _429  and  _432
REMARK  176  A    between atoms: _432  and  _433
REMARK  177  A    between atoms: _433  and  _434
REMARK  178  A    between atoms: _434  and  _435
REMARK  179  A    between atoms: _435  and  _436
REMARK  180  A    between atoms: _440  and  _442
REMARK  181  A    between atoms: _442  and  _443
REMARK  182  A    between atoms: _442  and  _445
REMARK  183  A    between atoms: _448  and  _450
REMARK  184  A    between atoms: _450  and  _451
REMARK  185  A    between atoms: _454  and  _456
REMARK  186  A    between atoms: _456  and  _457
REMARK  187  A    between atoms: _456  and  _459
REMARK  188  A    between atoms: _459  and  _460
REMARK  189  A    between atoms: _463  and  _465
REMARK  190  A    between atoms: _465  and  _466
REMARK  191  A    between atoms: _465  and  _468
REMARK  192  A    between atoms: _468  and  _469
REMARK  193  A    between atoms: _475  and  _477
REMARK  194  A    between atoms: _477  and  _478
REMARK  195  A    between atoms: _477  and  _480
REMARK  196  A    between atoms: _480  and  _481
REMARK  197  A    between atoms: _484  and  _486
REMARK  198  A    between atoms: _486  and  _487
REMARK  199  A    between atoms: _490  and  _492
REMARK  200  A    between atoms: _492  and  _493
REMARK  201  A    between atoms: _492  and  _495
REMARK  202  A    between atoms: _495  and  _496
REMARK  203  A    between atoms: _496  and  _497
REMARK  204  A    between atoms: _497  and  _498
REMARK  205  A    between atoms: _507  and  _509
REMARK  206  A    between atoms: _509  and  _510
REMARK  207  A    between atoms: _509  and  _512
REMARK  208  A    between atoms: _512  and  _513
REMARK  209  A    between atoms: _516  and  _518
REMARK  210  A    between atoms: _518  and  _519
REMARK  211  A    between atoms: _518  and  _521
REMARK  212  A    between atoms: _521  and  _522
REMARK  213  A    between atoms: _522  and  _523
REMARK  214  A    between atoms: _525  and  _527
REMARK  215  A    between atoms: _527  and  _528
REMARK  216  A    between atoms: _527  and  _530
REMARK  217  A    between atoms: _530  and  _531
REMARK  218  A    between atoms: _536  and  _537
REMARK  219  A    between atoms: _539  and  _541
REMARK  220  A    between atoms: _541  and  _542
REMARK  221  A    between atoms: _541  and  _544
REMARK  222  A    between atoms: _544  and  _545
REMARK  223  A    between atoms: _548  and  _550
REMARK  224  A    between atoms: _550  and  _551
REMARK  225  A    between atoms: _550  and  _553
REMARK  226  A    between atoms: _553  and  _554
REMARK  227  A    between atoms: _559  and  _560
REMARK                            x       y       z     vdW  Elec       q    Type
REMARK                         _______ _______ _______ _____ _____    ______ ____
ROOT
ATOM      1  CB  ASN A   1      27.151  73.334  -3.880  0.00  0.00    +0.110 C 
ENDROOT
BRANCH   1   2
ATOM      2  CG  ASN A   1      28.209  73.929  -4.802  0.00  0.00    +0.221 C 
ATOM      3  ND2 ASN A   1      28.424  75.232  -4.673  0.00  0.00    -0.329 N 
ATOM      4 HD21 ASN A   1      27.862  75.787  -3.997  0.00  0.00    +0.145 HD
ATOM      5 HD22 ASN A   1      29.155  75.698  -5.248  0.00  0.00    +0.145 HD
ATOM      6  OD1 ASN A   1      28.850  73.224  -5.591  0.00  0.00    -0.275 OA
ENDBRANCH   1   2
BRANCH   1   7
ATOM      7  CA  ASN A   1      26.352  72.207  -4.535  0.00  0.00    +0.142 C 
BRANCH   7   8
ATOM      8  N   ASN A   1      25.268  71.778  -3.658  0.00  0.00    -0.239 NA
ATOM      9  H   ASN A   1      25.237  72.132  -2.681  0.00  0.00    +0.142 HD
ENDBRANCH   7   8
BRANCH   7  10
ATOM     10  C   ASN A   1      27.249  71.029  -4.925  0.00  0.00    +0.225 C 
ATOM     11  O   ASN A   1      27.916  70.429  -4.083  0.00  0.00    -0.287 OA
ENDBRANCH   7  10
ENDBRANCH   1   7
TORSDOF 4
REMARK  Name = ../refined-set-2016/2wgj/2wgj_pocket.pdb
REMARK  227 active torsions:
REMARK  status: ('A' for Active; 'I' for Inactive)
REMARK    1  A    between atoms: _1  and  _3
REMARK    2  A    between atoms: _3  and  _4
REMARK    3  A    between atoms: _3  and  _6
REMARK    4  A    between atoms: _9  and  _11
REMARK    5  A    between atoms: _11  and  _12
REMARK    6  A    between atoms: _11  and  _14
REMARK    7  A    between atoms: _14  and  _15
REMARK    8  A    between atoms: _18  and  _20
REMARK    9  A    between atoms: _20  and  _21
REMARK   10  A    between atoms: _23  and  _25
REMARK   11  A    between atoms: _25  and  _26
REMARK   12  A    between atoms: _25  and  _28
REMARK   13  A    between atoms: _28  and  _29
REMARK   14  A    between atoms: _29  and  _30
REMARK   15  A    between atoms: _30  and  _31
REMARK   16  A    between atoms: _40  and  _42
REMARK   17  A    between atoms: _42  and  _43
REMARK   18  A    between atoms: _45  and  _47
REMARK   19  A    between atoms: _47  and  _48
REMARK   20  A    between atoms: _50  and  _52
REMARK   21  A    between atoms: _52  and  _53
REMARK   22  A    between atoms: _52  and  _55
REMARK   23  A    between atoms: _57  and  _59
REMARK   24  A    between atoms: _59  and  _60
REMARK   25  A    between atoms: _59  and  _62
REMARK   26  A    between atoms: _65  and  _67
REMARK   27  A    between atoms: _67  and  _68
REMARK   28  A    between atoms: _67  and  _70
REMARK   29  A    between atoms: _70  and  _71
REMARK   30  A    between atoms: _76  and  _77
REMARK   31  A    between atoms: _79  and  _81
REMARK   32  A    between atoms: _81  and  _82
REMARK   33  A    between atoms: _81  and  _84
REMARK   34  A    between atoms: _84  and  _85
REMARK   35  A    between atoms: _90  and  _92
REMARK   36  A    between atoms: _92  and  _93
REMARK   37  A    between atoms: _92  and  _95
REMARK   38  A    between atoms: _95  and  _96
REMARK   39  A    between atoms: _101  and  _103
REMARK   40  A    between atoms: _103  and  _104
REMARK   41  A    between atoms: _103  and  _106
REMARK   42  A    between atoms: _108  and  _110
REMARK   43  A    between atoms: _110  and  _111
REMARK   44  A    between atoms: _114  and  _116
REMARK   45  A    between atoms: _116  and  _117
REMARK   46  A    between atoms: _116  and  _119
REMARK   47  A    between atoms: _122  and  _124
REMARK   48  A    between atoms: _124  and  _125
REMARK   49  A    between atoms: _124  and  _127
REMARK   50  A    between atoms: _127  and  _128
REMARK   51  A    between atoms: _128  and  _129
REMARK   52  A    between atoms: _129  and  _130
REMARK   53  A    between atoms: _130  and  _131
REMARK   54  A    between atoms: _135  and  _137
REMARK   55  A    between atoms: _137  and  _138
REMARK   56  A    between atoms: _137  and  _140
REMARK   57  A    between atoms: _140  and  _141
REMARK   58  A    between atoms: _143  and  _145
REMARK   59  A    between atoms: _145  and  _146
REMARK   60  A    between atoms: _145  and  _148
REMARK   61  A    between atoms: _148  and  _149
REMARK   62  A    between atoms: _149  and  _150
REMARK   63  A    between atoms: _152  and  _154
REMARK   64  A    between atoms: _154  and  _155
REMARK   65  A    between atoms: _154  and  _157
REMARK   66  A    between atoms: _157  and  _158
REMARK   67  A    between atoms: _161  and  _163
REMARK   68  A    between atoms: _163  and  _164
REMARK   69  A    between atoms: _163  and  _166
REMARK   70  A    between atoms: _166  and  _167
REMARK   71  A    between atoms: _169  and  _171
REMARK   72  A    between atoms: _171  and  _172
REMARK   73  A    between atoms: _171  and  _174
REMARK   74  A    between atoms: _177  and  _179
REMARK   75  A    between atoms: _179  and  _180
REMARK   76  A    between atoms: _179  and  _182
REMARK   77  A    between atoms: _185  and  _187
REMARK   78  A    between atoms: _187  and  _188
REMARK   79  A    between atoms: _187  and  _190
REMARK   80  A    between atoms: _190  and  _191
REMARK   81  A    between atoms: _195  and  _196
REMARK   82  A    between atoms: _201  and  _203
REMARK   83  A    between atoms: _203  and  _204
REMARK   84  A    between atoms: _203  and  _206
REMARK   85  A    between atoms: _206  and  _207
REMARK   86  A    between atoms: _212  and  _213
REMARK   87  A    between atoms: _215  and  _217
REMARK   88  A    between atoms: _217  and  _218
REMARK   89  A    between atoms: _217  and  _220
REMARK   90  A    between atoms: _220  and  _221
REMARK   91  A    between atoms: _221  and  _222
REMARK   92  A    between atoms: _224  and  _226
REMARK   93  A    between atoms: _226  and  _227
REMARK   94  A    between atoms: _226  and  _229
REMARK   95  A    between atoms: _229  and  _230
REMARK   96  A    between atoms: _230  and  _231
REMARK   97  A    between atoms: _231  and  _232
REMARK   98  A    between atoms: _232  and  _233
REMARK   99  A    between atoms: _237  and  _239
REMARK  100  A    between atoms: _239  and  _240
REMARK  101  A    between atoms: _239  and  _242
REMARK  102  A    between atoms: _242  and  _243
REMARK  103  A    between atoms: _248  and  _250
REMARK  104  A    between atoms: _250  and  _251
REMARK  105  A    between atoms: _253  and  _255
REMARK  106  A    between atoms: _255  and  _256
REMARK  107  A    between atoms: _255  and  _258
REMARK  108  A    between atoms: _258  and  _259
REMARK  109  A    between atoms: _262  and  _264
REMARK  110  A    between atoms: _264  and  _265
REMARK  111  A    between atoms: _264  and  _267
REMARK  112  A    between atoms: _267  and  _268
REMARK  113  A    between atoms: _271  and  _273
REMARK  114  A    between atoms: _273  and  _274
REMARK  115  A    between atoms: _273  and  _276
REMARK  116  A    between atoms: _276  and  _277
REMARK  117  A    between atoms: _277  and  _278
REMARK  118  A    between atoms: _278  and  _279
REMARK  119  A    between atoms: _288  and  _290
REMARK  120  A    between atoms: _290  and  _291
REMARK  121  A    between atoms: _290  and  _293
REMARK  122  A    between atoms: _293  and  _294
REMARK  123  A    between atoms: _299  and  _301
REMARK  124  A    between atoms: _301  and  _302
REMARK  125  A    between atoms: _301  and  _304
REMARK  126  A    between atoms: _304  and  _305
REMARK  127  A    between atoms: _311  and  _313
REMARK  128  A    between atoms: _313  and  _314
REMARK  129  A    between atoms: _313  and  _316
REMARK  130  A    between atoms: _316  and  _317
REMARK  131  A    between atoms: _322  and  _324
REMARK  132  A    between atoms: _324  and  _325
REMARK  133  A    between atoms: _324  and  _327
REMARK  134  A    between atoms: _327  and  _328
REMARK  135  A    between atoms: _333  and  _335
REMARK  136  A    between atoms: _335  and  _336
REMARK  137  A    between atoms: _335  and  _338
REMARK  138  A    between atoms: _338  and  _339
REMARK  139  A    between atoms: _344  and  _346
REMARK  140  A    between atoms: _346  and  _347
REMARK  141  A    between atoms: _346  and  _349
REMARK  142  A    between atoms: _349  and  _350
REMARK  143  A    between atoms: _353  and  _355
REMARK  144  A    between atoms: _355  and  _356
REMARK  145  A    between atoms: _359  and  _361
REMARK  146  A    between atoms: _361  and  _362
REMARK  147  A    between atoms: _365  and  _367
REMARK  148  A    between atoms: _367  and  _368
REMARK  149  A    between atoms: _367  and  _370
REMARK  150  A    between atoms: _370  and  _371
REMARK  151  A    between atoms: _371  and  _372
REMARK  152  A    between atoms: _372  and  _373
REMARK  153  A    between atoms: _382  and  _384
REMARK  154  A    between atoms: _384  and  _385
REMARK  155  A    between atoms: _384  and  _387
REMARK  156  A    between atoms: _387  and  _388
REMARK  157  A    between atoms: _393  and  _395
REMARK  158  A    between atoms: _395  and  _396
REMARK  159  A    between atoms: _395  and  _398
REMARK  160  A    between atoms: _400  and  _402
REMARK  161  A    between atoms: _402  and  _403
REMARK  162  A    between atoms: _402  and  _405
REMARK  163  A    between atoms: _405  and  _406
REMARK  164  A    between atoms: _406  and  _407
REMARK  165  A    between atoms: _409  and  _411
REMARK  166  A    between atoms: _411  and  _412
REMARK  167  A    between atoms: _411  and  _414
REMARK  168  A    between atoms: _414  and  _415
REMARK  169  A    between atoms: _418  and  _420
REMARK  170  A    between atoms: _420  and  _421
REMARK  171  A    between atoms: _420  and  _423
REMARK  172  A    between atoms: _423  and  _424
REMARK  173  A    between atoms: _427  and  _429
REMARK  174  A    between atoms: _429  and  _430
REMARK  175  A    between atoms: _429  and  _432
REMARK  176  A    between atoms: _432  and  _433
REMARK  177  A    between atoms: _433  and  _434
REMARK  178  A    between atoms: _434  and  _435
REMARK  179  A    between atoms: _435  and  _436
REMARK  180  A    between atoms: _440  and  _442
REMARK  181  A    between atoms: _442  and  _443
REMARK  182  A    between atoms: _442  and  _445
REMARK  183  A    between atoms: _448  and  _450
REMARK  184  A    between atoms: _450  and  _451
REMARK  185  A    between atoms: _454  and  _456
REMARK  186  A    between atoms: _456  and  _457
REMARK  187  A    between atoms: _456  and  _459
REMARK  188  A    between atoms: _459  and  _460
REMARK  189  A    between atoms: _463  and  _465
REMARK  190  A    between atoms: _465  and  _466
REMARK  191  A    between atoms: _465  and  _468
REMARK  192  A    between atoms: _468  and  _469
REMARK  193  A    between atoms: _475  and  _477
REMARK  194  A    between atoms: _477  and  _478
REMARK  195  A    between atoms: _477  and  _480
REMARK  196  A    between atoms: _480  and  _481
REMARK  197  A    between atoms: _484  and  _486
REMARK  198  A    between atoms: _486  and  _487
REMARK  199  A    between atoms: _490  and  _492
REMARK  200  A    between atoms: _492  and  _493
REMARK  201  A    between atoms: _492  and  _495
REMARK  202  A    between atoms: _495  and  _496
REMARK  203  A    between atoms: _496  and  _497
REMARK  204  A    between atoms: _497  and  _498
REMARK  205  A    between atoms: _507  and  _509
REMARK  206  A    between atoms: _509  and  _510
REMARK  207  A    between atoms: _509  and  _512
REMARK  208  A    between atoms: _512  and  _513
REMARK  209  A    between atoms: _516  and  _518
REMARK  210  A    between atoms: _518  and  _519
REMARK  211  A    between atoms: _518  and  _521
REMARK  212  A    between atoms: _521  and  _522
REMARK  213  A    between atoms: _522  and  _523
REMARK  214  A    between atoms: _525  and  _527
REMARK  215  A    between atoms: _527  and  _528
REMARK  216  A    between atoms: _527  and  _530
REMARK  217  A    between atoms: _530  and  _531
REMARK  218  A    between atoms: _536  and  _537
REMARK  219  A    between atoms: _539  and  _541
REMARK  220  A    between atoms: _541  and  _542
REMARK  221  A    between atoms: _541  and  _544
REMARK  222  A    between atoms: _544  and  _545
REMARK  223  A    between atoms: _548  and  _550
REMARK  224  A    between atoms: _550  and  _551
REMARK  225  A    between atoms: _550  and  _553
REMARK  226  A    between atoms: _553  and  _554
REMARK  227  A    between atoms: _559  and  _560
REMARK                            x       y       z     vdW  Elec       q    Type
REMARK                         _______ _______ _______ _____ _____    ______ ____
ROOT
ATOM      1  CB  HIS A   1      30.022  71.074  -1.591  0.00  0.00    +0.072 C 
ENDROOT
BRANCH   1   2
ATOM      2  CG  HIS A   1      30.099  72.567  -1.494  0.00  0.00    +0.082 A 
ATOM      3  CD2 HIS A   1      29.184  73.482  -1.092  0.00  0.00    +0.115 A 
ATOM      4  NE2 HIS A   1      29.775  74.720  -1.190  0.00  0.00    -0.221 NA
ATOM      5  CE1 HIS A   1      31.007  74.572  -1.645  0.00  0.00    +0.199 A 
ATOM      6  ND1 HIS A   1      31.230  73.282  -1.836  0.00  0.00    -0.227 NA
ENDBRANCH   1   2
BRANCH   1   7
ATOM      7  CA  HIS A   1      31.117  70.456  -2.459  0.00  0.00    +0.139 C 
BRANCH   7   8
ATOM      8  N   HIS A   1      30.884  70.735  -3.873  0.00  0.00    -0.239 NA
ATOM      9  H   HIS A   1      29.938  71.033  -4.185  0.00  0.00    +0.142 HD
ENDBRANCH   7   8
BRANCH   7  10
ATOM     10  C   HIS A   1      31.239  68.960  -2.200  0.00  0.00    +0.224 C 
ATOM     11  O   HIS A   1      32.180  68.513  -1.535  0.00  0.00    -0.287 OA
ENDBRANCH   7  10
ENDBRANCH   1   7
TORSDOF 4
REMARK  Name = ../refined-set-2016/2wgj/2wgj_pocket.pdb
REMARK  227 active torsions:
REMARK  status: ('A' for Active; 'I' for Inactive)
REMARK    1  A    between atoms: _1  and  _3
REMARK    2  A    between atoms: _3  and  _4
REMARK    3  A    between atoms: _3  and  _6
REMARK    4  A    between atoms: _9  and  _11
REMARK    5  A    between atoms: _11  and  _12
REMARK    6  A    between atoms: _11  and  _14
REMARK    7  A    between atoms: _14  and  _15
REMARK    8  A    between atoms: _18  and  _20
REMARK    9  A    between atoms: _20  and  _21
REMARK   10  A    between atoms: _23  and  _25
REMARK   11  A    between atoms: _25  and  _26
REMARK   12  A    between atoms: _25  and  _28
REMARK   13  A    between atoms: _28  and  _29
REMARK   14  A    between atoms: _29  and  _30
REMARK   15  A    between atoms: _30  and  _31
REMARK   16  A    between atoms: _40  and  _42
REMARK   17  A    between atoms: _42  and  _43
REMARK   18  A    between atoms: _45  and  _47
REMARK   19  A    between atoms: _47  and  _48
REMARK   20  A    between atoms: _50  and  _52
REMARK   21  A    between atoms: _52  and  _53
REMARK   22  A    between atoms: _52  and  _55
REMARK   23  A    between atoms: _57  and  _59
REMARK   24  A    between atoms: _59  and  _60
REMARK   25  A    between atoms: _59  and  _62
REMARK   26  A    between atoms: _65  and  _67
REMARK   27  A    between atoms: _67  and  _68
REMARK   28  A    between atoms: _67  and  _70
REMARK   29  A    between atoms: _70  and  _71
REMARK   30  A    between atoms: _76  and  _77
REMARK   31  A    between atoms: _79  and  _81
REMARK   32  A    between atoms: _81  and  _82
REMARK   33  A    between atoms: _81  and  _84
REMARK   34  A    between atoms: _84  and  _85
REMARK   35  A    between atoms: _90  and  _92
REMARK   36  A    between atoms: _92  and  _93
REMARK   37  A    between atoms: _92  and  _95
REMARK   38  A    between atoms: _95  and  _96
REMARK   39  A    between atoms: _101  and  _103
REMARK   40  A    between atoms: _103  and  _104
REMARK   41  A    between atoms: _103  and  _106
REMARK   42  A    between atoms: _108  and  _110
REMARK   43  A    between atoms: _110  and  _111
REMARK   44  A    between atoms: _114  and  _116
REMARK   45  A    between atoms: _116  and  _117
REMARK   46  A    between atoms: _116  and  _119
REMARK   47  A    between atoms: _122  and  _124
REMARK   48  A    between atoms: _124  and  _125
REMARK   49  A    between atoms: _124  and  _127
REMARK   50  A    between atoms: _127  and  _128
REMARK   51  A    between atoms: _128  and  _129
REMARK   52  A    between atoms: _129  and  _130
REMARK   53  A    between atoms: _130  and  _131
REMARK   54  A    between atoms: _135  and  _137
REMARK   55  A    between atoms: _137  and  _138
REMARK   56  A    between atoms: _137  and  _140
REMARK   57  A    between atoms: _140  and  _141
REMARK   58  A    between atoms: _143  and  _145
REMARK   59  A    between atoms: _145  and  _146
REMARK   60  A    between atoms: _145  and  _148
REMARK   61  A    between atoms: _148  and  _149
REMARK   62  A    between atoms: _149  and  _150
REMARK   63  A    between atoms: _152  and  _154
REMARK   64  A    between atoms: _154  and  _155
REMARK   65  A    between atoms: _154  and  _157
REMARK   66  A    between atoms: _157  and  _158
REMARK   67  A    between atoms: _161  and  _163
REMARK   68  A    between atoms: _163  and  _164
REMARK   69  A    between atoms: _163  and  _166
REMARK   70  A    between atoms: _166  and  _167
REMARK   71  A    between atoms: _169  and  _171
REMARK   72  A    between atoms: _171  and  _172
REMARK   73  A    between atoms: _171  and  _174
REMARK   74  A    between atoms: _177  and  _179
REMARK   75  A    between atoms: _179  and  _180
REMARK   76  A    between atoms: _179  and  _182
REMARK   77  A    between atoms: _185  and  _187
REMARK   78  A    between atoms: _187  and  _188
REMARK   79  A    between atoms: _187  and  _190
REMARK   80  A    between atoms: _190  and  _191
REMARK   81  A    between atoms: _195  and  _196
REMARK   82  A    between atoms: _201  and  _203
REMARK   83  A    between atoms: _203  and  _204
REMARK   84  A    between atoms: _203  and  _206
REMARK   85  A    between atoms: _206  and  _207
REMARK   86  A    between atoms: _212  and  _213
REMARK   87  A    between atoms: _215  and  _217
REMARK   88  A    between atoms: _217  and  _218
REMARK   89  A    between atoms: _217  and  _220
REMARK   90  A    between atoms: _220  and  _221
REMARK   91  A    between atoms: _221  and  _222
REMARK   92  A    between atoms: _224  and  _226
REMARK   93  A    between atoms: _226  and  _227
REMARK   94  A    between atoms: _226  and  _229
REMARK   95  A    between atoms: _229  and  _230
REMARK   96  A    between atoms: _230  and  _231
REMARK   97  A    between atoms: _231  and  _232
REMARK   98  A    between atoms: _232  and  _233
REMARK   99  A    between atoms: _237  and  _239
REMARK  100  A    between atoms: _239  and  _240
REMARK  101  A    between atoms: _239  and  _242
REMARK  102  A    between atoms: _242  and  _243
REMARK  103  A    between atoms: _248  and  _250
REMARK  104  A    between atoms: _250  and  _251
REMARK  105  A    between atoms: _253  and  _255
REMARK  106  A    between atoms: _255  and  _256
REMARK  107  A    between atoms: _255  and  _258
REMARK  108  A    between atoms: _258  and  _259
REMARK  109  A    between atoms: _262  and  _264
REMARK  110  A    between atoms: _264  and  _265
REMARK  111  A    between atoms: _264  and  _267
REMARK  112  A    between atoms: _267  and  _268
REMARK  113  A    between atoms: _271  and  _273
REMARK  114  A    between atoms: _273  and  _274
REMARK  115  A    between atoms: _273  and  _276
REMARK  116  A    between atoms: _276  and  _277
REMARK  117  A    between atoms: _277  and  _278
REMARK  118  A    between atoms: _278  and  _279
REMARK  119  A    between atoms: _288  and  _290
REMARK  120  A    between atoms: _290  and  _291
REMARK  121  A    between atoms: _290  and  _293
REMARK  122  A    between atoms: _293  and  _294
REMARK  123  A    between atoms: _299  and  _301
REMARK  124  A    between atoms: _301  and  _302
REMARK  125  A    between atoms: _301  and  _304
REMARK  126  A    between atoms: _304  and  _305
REMARK  127  A    between atoms: _311  and  _313
REMARK  128  A    between atoms: _313  and  _314
REMARK  129  A    between atoms: _313  and  _316
REMARK  130  A    between atoms: _316  and  _317
REMARK  131  A    between atoms: _322  and  _324
REMARK  132  A    between atoms: _324  and  _325
REMARK  133  A    between atoms: _324  and  _327
REMARK  134  A    between atoms: _327  and  _328
REMARK  135  A    between atoms: _333  and  _335
REMARK  136  A    between atoms: _335  and  _336
REMARK  137  A    between atoms: _335  and  _338
REMARK  138  A    between atoms: _338  and  _339
REMARK  139  A    between atoms: _344  and  _346
REMARK  140  A    between atoms: _346  and  _347
REMARK  141  A    between atoms: _346  and  _349
REMARK  142  A    between atoms: _349  and  _350
REMARK  143  A    between atoms: _353  and  _355
REMARK  144  A    between atoms: _355  and  _356
REMARK  145  A    between atoms: _359  and  _361
REMARK  146  A    between atoms: _361  and  _362
REMARK  147  A    between atoms: _365  and  _367
REMARK  148  A    between atoms: _367  and  _368
REMARK  149  A    between atoms: _367  and  _370
REMARK  150  A    between atoms: _370  and  _371
REMARK  151  A    between atoms: _371  and  _372
REMARK  152  A    between atoms: _372  and  _373
REMARK  153  A    between atoms: _382  and  _384
REMARK  154  A    between atoms: _384  and  _385
REMARK  155  A    between atoms: _384  and  _387
REMARK  156  A    between atoms: _387  and  _388
REMARK  157  A    between atoms: _393  and  _395
REMARK  158  A    between atoms: _395  and  _396
REMARK  159  A    between atoms: _395  and  _398
REMARK  160  A    between atoms: _400  and  _402
REMARK  161  A    between atoms: _402  and  _403
REMARK  162  A    between atoms: _402  and  _405
REMARK  163  A    between atoms: _405  and  _406
REMARK  164  A    between atoms: _406  and  _407
REMARK  165  A    between atoms: _409  and  _411
REMARK  166  A    between atoms: _411  and  _412
REMARK  167  A    between atoms: _411  and  _414
REMARK  168  A    between atoms: _414  and  _415
REMARK  169  A    between atoms: _418  and  _420
REMARK  170  A    between atoms: _420  and  _421
REMARK  171  A    between atoms: _420  and  _423
REMARK  172  A    between atoms: _423  and  _424
REMARK  173  A    between atoms: _427  and  _429
REMARK  174  A    between atoms: _429  and  _430
REMARK  175  A    between atoms: _429  and  _432
REMARK  176  A    between atoms: _432  and  _433
REMARK  177  A    between atoms: _433  and  _434
REMARK  178  A    between atoms: _434  and  _435
REMARK  179  A    between atoms: _435  and  _436
REMARK  180  A    between atoms: _440  and  _442
REMARK  181  A    between atoms: _442  and  _443
REMARK  182  A    between atoms: _442  and  _445
REMARK  183  A    between atoms: _448  and  _450
REMARK  184  A    between atoms: _450  and  _451
REMARK  185  A    between atoms: _454  and  _456
REMARK  186  A    between atoms: _456  and  _457
REMARK  187  A    between atoms: _456  and  _459
REMARK  188  A    between atoms: _459  and  _460
REMARK  189  A    between atoms: _463  and  _465
REMARK  190  A    between atoms: _465  and  _466
REMARK  191  A    between atoms: _465  and  _468
REMARK  192  A    between atoms: _468  and  _469
REMARK  193  A    between atoms: _475  and  _477
REMARK  194  A    between atoms: _477  and  _478
REMARK  195  A    between atoms: _477  and  _480
REMARK  196  A    between atoms: _480  and  _481
REMARK  197  A    between atoms: _484  and  _486
REMARK  198  A    between atoms: _486  and  _487
REMARK  199  A    between atoms: _490  and  _492
REMARK  200  A    between atoms: _492  and  _493
REMARK  201  A    between atoms: _492  and  _495
REMARK  202  A    between atoms: _495  and  _496
REMARK  203  A    between atoms: _496  and  _497
REMARK  204  A    between atoms: _497  and  _498
REMARK  205  A    between atoms: _507  and  _509
REMARK  206  A    between atoms: _509  and  _510
REMARK  207  A    between atoms: _509  and  _512
REMARK  208  A    between atoms: _512  and  _513
REMARK  209  A    between atoms: _516  and  _518
REMARK  210  A    between atoms: _518  and  _519
REMARK  211  A    between atoms: _518  and  _521
REMARK  212  A    between atoms: _521  and  _522
REMARK  213  A    between atoms: _522  and  _523
REMARK  214  A    between atoms: _525  and  _527
REMARK  215  A    between atoms: _527  and  _528
REMARK  216  A    between atoms: _527  and  _530
REMARK  217  A    between atoms: _530  and  _531
REMARK  218  A    between atoms: _536  and  _537
REMARK  219  A    between atoms: _539  and  _541
REMARK  220  A    between atoms: _541  and  _542
REMARK  221  A    between atoms: _541  and  _544
REMARK  222  A    between atoms: _544  and  _545
REMARK  223  A    between atoms: _548  and  _550
REMARK  224  A    between atoms: _550  and  _551
REMARK  225  A    between atoms: _550  and  _553
REMARK  226  A    between atoms: _553  and  _554
REMARK  227  A    between atoms: _559  and  _560
REMARK                            x       y       z     vdW  Elec       q    Type
REMARK                         _______ _______ _______ _____ _____    ______ ____
ROOT
ATOM      1  CB  HIS A   1      12.241  75.654  15.850  0.00  0.00    +0.072 C 
ENDROOT
BRANCH   1   2
ATOM      2  CG  HIS A   1      12.924  76.365  14.724  0.00  0.00    +0.082 A 
ATOM      3  ND1 HIS A   1      14.206  76.863  14.823  0.00  0.00    -0.227 NA
ATOM      4  CE1 HIS A   1      14.530  77.458  13.689  0.00  0.00    +0.199 A 
ATOM      5  NE2 HIS A   1      13.500  77.377  12.865  0.00  0.00    -0.221 NA
ATOM      6  CD2 HIS A   1      12.485  76.697  13.488  0.00  0.00    +0.115 A 
ENDBRANCH   1   2
BRANCH   1   7
ATOM      7  CA  HIS A   1      11.095  76.466  16.471  0.00  0.00    +0.139 C 
BRANCH   7   8
ATOM      8  N   HIS A   1      10.612  75.847  17.708  0.00  0.00    -0.239 NA
ATOM      9  H   HIS A   1      10.831  74.847  17.889  0.00  0.00    +0.142 HD
ENDBRANCH   7   8
BRANCH   7  10
ATOM     10  C   HIS A   1       9.986  76.691  15.447  0.00  0.00    +0.224 C 
ATOM     11  O   HIS A   1       9.796  77.811  14.975  0.00  0.00    -0.287 OA
ENDBRANCH   7  10
ENDBRANCH   1   7
TORSDOF 4
REMARK  Name = ../refined-set-2016/2wgj/2wgj_pocket.pdb
REMARK  227 active torsions:
REMARK  status: ('A' for Active; 'I' for Inactive)
REMARK    1  A    between atoms: _1  and  _3
REMARK    2  A    between atoms: _3  and  _4
REMARK    3  A    between atoms: _3  and  _6
REMARK    4  A    between atoms: _9  and  _11
REMARK    5  A    between atoms: _11  and  _12
REMARK    6  A    between atoms: _11  and  _14
REMARK    7  A    between atoms: _14  and  _15
REMARK    8  A    between atoms: _18  and  _20
REMARK    9  A    between atoms: _20  and  _21
REMARK   10  A    between atoms: _23  and  _25
REMARK   11  A    between atoms: _25  and  _26
REMARK   12  A    between atoms: _25  and  _28
REMARK   13  A    between atoms: _28  and  _29
REMARK   14  A    between atoms: _29  and  _30
REMARK   15  A    between atoms: _30  and  _31
REMARK   16  A    between atoms: _40  and  _42
REMARK   17  A    between atoms: _42  and  _43
REMARK   18  A    between atoms: _45  and  _47
REMARK   19  A    between atoms: _47  and  _48
REMARK   20  A    between atoms: _50  and  _52
REMARK   21  A    between atoms: _52  and  _53
REMARK   22  A    between atoms: _52  and  _55
REMARK   23  A    between atoms: _57  and  _59
REMARK   24  A    between atoms: _59  and  _60
REMARK   25  A    between atoms: _59  and  _62
REMARK   26  A    between atoms: _65  and  _67
REMARK   27  A    between atoms: _67  and  _68
REMARK   28  A    between atoms: _67  and  _70
REMARK   29  A    between atoms: _70  and  _71
REMARK   30  A    between atoms: _76  and  _77
REMARK   31  A    between atoms: _79  and  _81
REMARK   32  A    between atoms: _81  and  _82
REMARK   33  A    between atoms: _81  and  _84
REMARK   34  A    between atoms: _84  and  _85
REMARK   35  A    between atoms: _90  and  _92
REMARK   36  A    between atoms: _92  and  _93
REMARK   37  A    between atoms: _92  and  _95
REMARK   38  A    between atoms: _95  and  _96
REMARK   39  A    between atoms: _101  and  _103
REMARK   40  A    between atoms: _103  and  _104
REMARK   41  A    between atoms: _103  and  _106
REMARK   42  A    between atoms: _108  and  _110
REMARK   43  A    between atoms: _110  and  _111
REMARK   44  A    between atoms: _114  and  _116
REMARK   45  A    between atoms: _116  and  _117
REMARK   46  A    between atoms: _116  and  _119
REMARK   47  A    between atoms: _122  and  _124
REMARK   48  A    between atoms: _124  and  _125
REMARK   49  A    between atoms: _124  and  _127
REMARK   50  A    between atoms: _127  and  _128
REMARK   51  A    between atoms: _128  and  _129
REMARK   52  A    between atoms: _129  and  _130
REMARK   53  A    between atoms: _130  and  _131
REMARK   54  A    between atoms: _135  and  _137
REMARK   55  A    between atoms: _137  and  _138
REMARK   56  A    between atoms: _137  and  _140
REMARK   57  A    between atoms: _140  and  _141
REMARK   58  A    between atoms: _143  and  _145
REMARK   59  A    between atoms: _145  and  _146
REMARK   60  A    between atoms: _145  and  _148
REMARK   61  A    between atoms: _148  and  _149
REMARK   62  A    between atoms: _149  and  _150
REMARK   63  A    between atoms: _152  and  _154
REMARK   64  A    between atoms: _154  and  _155
REMARK   65  A    between atoms: _154  and  _157
REMARK   66  A    between atoms: _157  and  _158
REMARK   67  A    between atoms: _161  and  _163
REMARK   68  A    between atoms: _163  and  _164
REMARK   69  A    between atoms: _163  and  _166
REMARK   70  A    between atoms: _166  and  _167
REMARK   71  A    between atoms: _169  and  _171
REMARK   72  A    between atoms: _171  and  _172
REMARK   73  A    between atoms: _171  and  _174
REMARK   74  A    between atoms: _177  and  _179
REMARK   75  A    between atoms: _179  and  _180
REMARK   76  A    between atoms: _179  and  _182
REMARK   77  A    between atoms: _185  and  _187
REMARK   78  A    between atoms: _187  and  _188
REMARK   79  A    between atoms: _187  and  _190
REMARK   80  A    between atoms: _190  and  _191
REMARK   81  A    between atoms: _195  and  _196
REMARK   82  A    between atoms: _201  and  _203
REMARK   83  A    between atoms: _203  and  _204
REMARK   84  A    between atoms: _203  and  _206
REMARK   85  A    between atoms: _206  and  _207
REMARK   86  A    between atoms: _212  and  _213
REMARK   87  A    between atoms: _215  and  _217
REMARK   88  A    between atoms: _217  and  _218
REMARK   89  A    between atoms: _217  and  _220
REMARK   90  A    between atoms: _220  and  _221
REMARK   91  A    between atoms: _221  and  _222
REMARK   92  A    between atoms: _224  and  _226
REMARK   93  A    between atoms: _226  and  _227
REMARK   94  A    between atoms: _226  and  _229
REMARK   95  A    between atoms: _229  and  _230
REMARK   96  A    between atoms: _230  and  _231
REMARK   97  A    between atoms: _231  and  _232
REMARK   98  A    between atoms: _232  and  _233
REMARK   99  A    between atoms: _237  and  _239
REMARK  100  A    between atoms: _239  and  _240
REMARK  101  A    between atoms: _239  and  _242
REMARK  102  A    between atoms: _242  and  _243
REMARK  103  A    between atoms: _248  and  _250
REMARK  104  A    between atoms: _250  and  _251
REMARK  105  A    between atoms: _253  and  _255
REMARK  106  A    between atoms: _255  and  _256
REMARK  107  A    between atoms: _255  and  _258
REMARK  108  A    between atoms: _258  and  _259
REMARK  109  A    between atoms: _262  and  _264
REMARK  110  A    between atoms: _264  and  _265
REMARK  111  A    between atoms: _264  and  _267
REMARK  112  A    between atoms: _267  and  _268
REMARK  113  A    between atoms: _271  and  _273
REMARK  114  A    between atoms: _273  and  _274
REMARK  115  A    between atoms: _273  and  _276
REMARK  116  A    between atoms: _276  and  _277
REMARK  117  A    between atoms: _277  and  _278
REMARK  118  A    between atoms: _278  and  _279
REMARK  119  A    between atoms: _288  and  _290
REMARK  120  A    between atoms: _290  and  _291
REMARK  121  A    between atoms: _290  and  _293
REMARK  122  A    between atoms: _293  and  _294
REMARK  123  A    between atoms: _299  and  _301
REMARK  124  A    between atoms: _301  and  _302
REMARK  125  A    between atoms: _301  and  _304
REMARK  126  A    between atoms: _304  and  _305
REMARK  127  A    between atoms: _311  and  _313
REMARK  128  A    between atoms: _313  and  _314
REMARK  129  A    between atoms: _313  and  _316
REMARK  130  A    between atoms: _316  and  _317
REMARK  131  A    between atoms: _322  and  _324
REMARK  132  A    between atoms: _324  and  _325
REMARK  133  A    between atoms: _324  and  _327
REMARK  134  A    between atoms: _327  and  _328
REMARK  135  A    between atoms: _333  and  _335
REMARK  136  A    between atoms: _335  and  _336
REMARK  137  A    between atoms: _335  and  _338
REMARK  138  A    between atoms: _338  and  _339
REMARK  139  A    between atoms: _344  and  _346
REMARK  140  A    between atoms: _346  and  _347
REMARK  141  A    between atoms: _346  and  _349
REMARK  142  A    between atoms: _349  and  _350
REMARK  143  A    between atoms: _353  and  _355
REMARK  144  A    between atoms: _355  and  _356
REMARK  145  A    between atoms: _359  and  _361
REMARK  146  A    between atoms: _361  and  _362
REMARK  147  A    between atoms: _365  and  _367
REMARK  148  A    between atoms: _367  and  _368
REMARK  149  A    between atoms: _367  and  _370
REMARK  150  A    between atoms: _370  and  _371
REMARK  151  A    between atoms: _371  and  _372
REMARK  152  A    between atoms: _372  and  _373
REMARK  153  A    between atoms: _382  and  _384
REMARK  154  A    between atoms: _384  and  _385
REMARK  155  A    between atoms: _384  and  _387
REMARK  156  A    between atoms: _387  and  _388
REMARK  157  A    between atoms: _393  and  _395
REMARK  158  A    between atoms: _395  and  _396
REMARK  159  A    between atoms: _395  and  _398
REMARK  160  A    between atoms: _400  and  _402
REMARK  161  A    between atoms: _402  and  _403
REMARK  162  A    between atoms: _402  and  _405
REMARK  163  A    between atoms: _405  and  _406
REMARK  164  A    between atoms: _406  and  _407
REMARK  165  A    between atoms: _409  and  _411
REMARK  166  A    between atoms: _411  and  _412
REMARK  167  A    between atoms: _411  and  _414
REMARK  168  A    between atoms: _414  and  _415
REMARK  169  A    between atoms: _418  and  _420
REMARK  170  A    between atoms: _420  and  _421
REMARK  171  A    between atoms: _420  and  _423
REMARK  172  A    between atoms: _423  and  _424
REMARK  173  A    between atoms: _427  and  _429
REMARK  174  A    between atoms: _429  and  _430
REMARK  175  A    between atoms: _429  and  _432
REMARK  176  A    between atoms: _432  and  _433
REMARK  177  A    between atoms: _433  and  _434
REMARK  178  A    between atoms: _434  and  _435
REMARK  179  A    between atoms: _435  and  _436
REMARK  180  A    between atoms: _440  and  _442
REMARK  181  A    between atoms: _442  and  _443
REMARK  182  A    between atoms: _442  and  _445
REMARK  183  A    between atoms: _448  and  _450
REMARK  184  A    between atoms: _450  and  _451
REMARK  185  A    between atoms: _454  and  _456
REMARK  186  A    between atoms: _456  and  _457
REMARK  187  A    between atoms: _456  and  _459
REMARK  188  A    between atoms: _459  and  _460
REMARK  189  A    between atoms: _463  and  _465
REMARK  190  A    between atoms: _465  and  _466
REMARK  191  A    between atoms: _465  and  _468
REMARK  192  A    between atoms: _468  and  _469
REMARK  193  A    between atoms: _475  and  _477
REMARK  194  A    between atoms: _477  and  _478
REMARK  195  A    between atoms: _477  and  _480
REMARK  196  A    between atoms: _480  and  _481
REMARK  197  A    between atoms: _484  and  _486
REMARK  198  A    between atoms: _486  and  _487
REMARK  199  A    between atoms: _490  and  _492
REMARK  200  A    between atoms: _492  and  _493
REMARK  201  A    between atoms: _492  and  _495
REMARK  202  A    between atoms: _495  and  _496
REMARK  203  A    between atoms: _496  and  _497
REMARK  204  A    between atoms: _497  and  _498
REMARK  205  A    between atoms: _507  and  _509
REMARK  206  A    between atoms: _509  and  _510
REMARK  207  A    between atoms: _509  and  _512
REMARK  208  A    between atoms: _512  and  _513
REMARK  209  A    between atoms: _516  and  _518
REMARK  210  A    between atoms: _518  and  _519
REMARK  211  A    between atoms: _518  and  _521
REMARK  212  A    between atoms: _521  and  _522
REMARK  213  A    between atoms: _522  and  _523
REMARK  214  A    between atoms: _525  and  _527
REMARK  215  A    between atoms: _527  and  _528
REMARK  216  A    between atoms: _527  and  _530
REMARK  217  A    between atoms: _530  and  _531
REMARK  218  A    between atoms: _536  and  _537
REMARK  219  A    between atoms: _539  and  _541
REMARK  220  A    between atoms: _541  and  _542
REMARK  221  A    between atoms: _541  and  _544
REMARK  222  A    between atoms: _544  and  _545
REMARK  223  A    between atoms: _548  and  _550
REMARK  224  A    between atoms: _550  and  _551
REMARK  225  A    between atoms: _550  and  _553
REMARK  226  A    between atoms: _553  and  _554
REMARK  227  A    between atoms: _559  and  _560
REMARK                            x       y       z     vdW  Elec       q    Type
REMARK                         _______ _______ _______ _____ _____    ______ ____
ROOT
ATOM      1  CA  ASP A   1      10.211  75.699  10.945  0.00  0.00    +0.144 C 
ENDROOT
BRANCH   1   2
ATOM      2  N   ASP A   1       9.767  75.697  12.346  0.00  0.00    -0.239 NA
ATOM      3  H   ASP A   1      10.472  75.836  13.098  0.00  0.00    +0.142 HD
ENDBRANCH   1   2
BRANCH   1   4
ATOM      4  C   ASP A   1      11.660  75.180  10.801  0.00  0.00    +0.225 C 
ATOM      5  O   ASP A   1      12.505  75.747  10.100  0.00  0.00    -0.287 OA
ENDBRANCH   1   4
BRANCH   1   6
ATOM      6  CB  ASP A   1      10.037  77.103  10.351  0.00  0.00    +0.139 C 
BRANCH   6   7
ATOM      7  CG  ASP A   1      10.131  77.130   8.829  0.00  0.00    +0.367 C 
ATOM      8  OD2 ASP A   1      10.318  78.206   8.213  0.00  0.00    -0.246 OA
ATOM      9  OD1 ASP A   1      10.027  76.063   8.161  0.00  0.00    -0.246 OA
ENDBRANCH   6   7
ENDBRANCH   1   6
TORSDOF 4
REMARK  Name = ../refined-set-2016/2wgj/2wgj_pocket.pdb
REMARK  227 active torsions:
REMARK  status: ('A' for Active; 'I' for Inactive)
REMARK    1  A    between atoms: _1  and  _3
REMARK    2  A    between atoms: _3  and  _4
REMARK    3  A    between atoms: _3  and  _6
REMARK    4  A    between atoms: _9  and  _11
REMARK    5  A    between atoms: _11  and  _12
REMARK    6  A    between atoms: _11  and  _14
REMARK    7  A    between atoms: _14  and  _15
REMARK    8  A    between atoms: _18  and  _20
REMARK    9  A    between atoms: _20  and  _21
REMARK   10  A    between atoms: _23  and  _25
REMARK   11  A    between atoms: _25  and  _26
REMARK   12  A    between atoms: _25  and  _28
REMARK   13  A    between atoms: _28  and  _29
REMARK   14  A    between atoms: _29  and  _30
REMARK   15  A    between atoms: _30  and  _31
REMARK   16  A    between atoms: _40  and  _42
REMARK   17  A    between atoms: _42  and  _43
REMARK   18  A    between atoms: _45  and  _47
REMARK   19  A    between atoms: _47  and  _48
REMARK   20  A    between atoms: _50  and  _52
REMARK   21  A    between atoms: _52  and  _53
REMARK   22  A    between atoms: _52  and  _55
REMARK   23  A    between atoms: _57  and  _59
REMARK   24  A    between atoms: _59  and  _60
REMARK   25  A    between atoms: _59  and  _62
REMARK   26  A    between atoms: _65  and  _67
REMARK   27  A    between atoms: _67  and  _68
REMARK   28  A    between atoms: _67  and  _70
REMARK   29  A    between atoms: _70  and  _71
REMARK   30  A    between atoms: _76  and  _77
REMARK   31  A    between atoms: _79  and  _81
REMARK   32  A    between atoms: _81  and  _82
REMARK   33  A    between atoms: _81  and  _84
REMARK   34  A    between atoms: _84  and  _85
REMARK   35  A    between atoms: _90  and  _92
REMARK   36  A    between atoms: _92  and  _93
REMARK   37  A    between atoms: _92  and  _95
REMARK   38  A    between atoms: _95  and  _96
REMARK   39  A    between atoms: _101  and  _103
REMARK   40  A    between atoms: _103  and  _104
REMARK   41  A    between atoms: _103  and  _106
REMARK   42  A    between atoms: _108  and  _110
REMARK   43  A    between atoms: _110  and  _111
REMARK   44  A    between atoms: _114  and  _116
REMARK   45  A    between atoms: _116  and  _117
REMARK   46  A    between atoms: _116  and  _119
REMARK   47  A    between atoms: _122  and  _124
REMARK   48  A    between atoms: _124  and  _125
REMARK   49  A    between atoms: _124  and  _127
REMARK   50  A    between atoms: _127  and  _128
REMARK   51  A    between atoms: _128  and  _129
REMARK   52  A    between atoms: _129  and  _130
REMARK   53  A    between atoms: _130  and  _131
REMARK   54  A    between atoms: _135  and  _137
REMARK   55  A    between atoms: _137  and  _138
REMARK   56  A    between atoms: _137  and  _140
REMARK   57  A    between atoms: _140  and  _141
REMARK   58  A    between atoms: _143  and  _145
REMARK   59  A    between atoms: _145  and  _146
REMARK   60  A    between atoms: _145  and  _148
REMARK   61  A    between atoms: _148  and  _149
REMARK   62  A    between atoms: _149  and  _150
REMARK   63  A    between atoms: _152  and  _154
REMARK   64  A    between atoms: _154  and  _155
REMARK   65  A    between atoms: _154  and  _157
REMARK   66  A    between atoms: _157  and  _158
REMARK   67  A    between atoms: _161  and  _163
REMARK   68  A    between atoms: _163  and  _164
REMARK   69  A    between atoms: _163  and  _166
REMARK   70  A    between atoms: _166  and  _167
REMARK   71  A    between atoms: _169  and  _171
REMARK   72  A    between atoms: _171  and  _172
REMARK   73  A    between atoms: _171  and  _174
REMARK   74  A    between atoms: _177  and  _179
REMARK   75  A    between atoms: _179  and  _180
REMARK   76  A    between atoms: _179  and  _182
REMARK   77  A    between atoms: _185  and  _187
REMARK   78  A    between atoms: _187  and  _188
REMARK   79  A    between atoms: _187  and  _190
REMARK   80  A    between atoms: _190  and  _191
REMARK   81  A    between atoms: _195  and  _196
REMARK   82  A    between atoms: _201  and  _203
REMARK   83  A    between atoms: _203  and  _204
REMARK   84  A    between atoms: _203  and  _206
REMARK   85  A    between atoms: _206  and  _207
REMARK   86  A    between atoms: _212  and  _213
REMARK   87  A    between atoms: _215  and  _217
REMARK   88  A    between atoms: _217  and  _218
REMARK   89  A    between atoms: _217  and  _220
REMARK   90  A    between atoms: _220  and  _221
REMARK   91  A    between atoms: _221  and  _222
REMARK   92  A    between atoms: _224  and  _226
REMARK   93  A    between atoms: _226  and  _227
REMARK   94  A    between atoms: _226  and  _229
REMARK   95  A    between atoms: _229  and  _230
REMARK   96  A    between atoms: _230  and  _231
REMARK   97  A    between atoms: _231  and  _232
REMARK   98  A    between atoms: _232  and  _233
REMARK   99  A    between atoms: _237  and  _239
REMARK  100  A    between atoms: _239  and  _240
REMARK  101  A    between atoms: _239  and  _242
REMARK  102  A    between atoms: _242  and  _243
REMARK  103  A    between atoms: _248  and  _250
REMARK  104  A    between atoms: _250  and  _251
REMARK  105  A    between atoms: _253  and  _255
REMARK  106  A    between atoms: _255  and  _256
REMARK  107  A    between atoms: _255  and  _258
REMARK  108  A    between atoms: _258  and  _259
REMARK  109  A    between atoms: _262  and  _264
REMARK  110  A    between atoms: _264  and  _265
REMARK  111  A    between atoms: _264  and  _267
REMARK  112  A    between atoms: _267  and  _268
REMARK  113  A    between atoms: _271  and  _273
REMARK  114  A    between atoms: _273  and  _274
REMARK  115  A    between atoms: _273  and  _276
REMARK  116  A    between atoms: _276  and  _277
REMARK  117  A    between atoms: _277  and  _278
REMARK  118  A    between atoms: _278  and  _279
REMARK  119  A    between atoms: _288  and  _290
REMARK  120  A    between atoms: _290  and  _291
REMARK  121  A    between atoms: _290  and  _293
REMARK  122  A    between atoms: _293  and  _294
REMARK  123  A    between atoms: _299  and  _301
REMARK  124  A    between atoms: _301  and  _302
REMARK  125  A    between atoms: _301  and  _304
REMARK  126  A    between atoms: _304  and  _305
REMARK  127  A    between atoms: _311  and  _313
REMARK  128  A    between atoms: _313  and  _314
REMARK  129  A    between atoms: _313  and  _316
REMARK  130  A    between atoms: _316  and  _317
REMARK  131  A    between atoms: _322  and  _324
REMARK  132  A    between atoms: _324  and  _325
REMARK  133  A    between atoms: _324  and  _327
REMARK  134  A    between atoms: _327  and  _328
REMARK  135  A    between atoms: _333  and  _335
REMARK  136  A    between atoms: _335  and  _336
REMARK  137  A    between atoms: _335  and  _338
REMARK  138  A    between atoms: _338  and  _339
REMARK  139  A    between atoms: _344  and  _346
REMARK  140  A    between atoms: _346  and  _347
REMARK  141  A    between atoms: _346  and  _349
REMARK  142  A    between atoms: _349  and  _350
REMARK  143  A    between atoms: _353  and  _355
REMARK  144  A    between atoms: _355  and  _356
REMARK  145  A    between atoms: _359  and  _361
REMARK  146  A    between atoms: _361  and  _362
REMARK  147  A    between atoms: _365  and  _367
REMARK  148  A    between atoms: _367  and  _368
REMARK  149  A    between atoms: _367  and  _370
REMARK  150  A    between atoms: _370  and  _371
REMARK  151  A    between atoms: _371  and  _372
REMARK  152  A    between atoms: _372  and  _373
REMARK  153  A    between atoms: _382  and  _384
REMARK  154  A    between atoms: _384  and  _385
REMARK  155  A    between atoms: _384  and  _387
REMARK  156  A    between atoms: _387  and  _388
REMARK  157  A    between atoms: _393  and  _395
REMARK  158  A    between atoms: _395  and  _396
REMARK  159  A    between atoms: _395  and  _398
REMARK  160  A    between atoms: _400  and  _402
REMARK  161  A    between atoms: _402  and  _403
REMARK  162  A    between atoms: _402  and  _405
REMARK  163  A    between atoms: _405  and  _406
REMARK  164  A    between atoms: _406  and  _407
REMARK  165  A    between atoms: _409  and  _411
REMARK  166  A    between atoms: _411  and  _412
REMARK  167  A    between atoms: _411  and  _414
REMARK  168  A    between atoms: _414  and  _415
REMARK  169  A    between atoms: _418  and  _420
REMARK  170  A    between atoms: _420  and  _421
REMARK  171  A    between atoms: _420  and  _423
REMARK  172  A    between atoms: _423  and  _424
REMARK  173  A    between atoms: _427  and  _429
REMARK  174  A    between atoms: _429  and  _430
REMARK  175  A    between atoms: _429  and  _432
REMARK  176  A    between atoms: _432  and  _433
REMARK  177  A    between atoms: _433  and  _434
REMARK  178  A    between atoms: _434  and  _435
REMARK  179  A    between atoms: _435  and  _436
REMARK  180  A    between atoms: _440  and  _442
REMARK  181  A    between atoms: _442  and  _443
REMARK  182  A    between atoms: _442  and  _445
REMARK  183  A    between atoms: _448  and  _450
REMARK  184  A    between atoms: _450  and  _451
REMARK  185  A    between atoms: _454  and  _456
REMARK  186  A    between atoms: _456  and  _457
REMARK  187  A    between atoms: _456  and  _459
REMARK  188  A    between atoms: _459  and  _460
REMARK  189  A    between atoms: _463  and  _465
REMARK  190  A    between atoms: _465  and  _466
REMARK  191  A    between atoms: _465  and  _468
REMARK  192  A    between atoms: _468  and  _469
REMARK  193  A    between atoms: _475  and  _477
REMARK  194  A    between atoms: _477  and  _478
REMARK  195  A    between atoms: _477  and  _480
REMARK  196  A    between atoms: _480  and  _481
REMARK  197  A    between atoms: _484  and  _486
REMARK  198  A    between atoms: _486  and  _487
REMARK  199  A    between atoms: _490  and  _492
REMARK  200  A    between atoms: _492  and  _493
REMARK  201  A    between atoms: _492  and  _495
REMARK  202  A    between atoms: _495  and  _496
REMARK  203  A    between atoms: _496  and  _497
REMARK  204  A    between atoms: _497  and  _498
REMARK  205  A    between atoms: _507  and  _509
REMARK  206  A    between atoms: _509  and  _510
REMARK  207  A    between atoms: _509  and  _512
REMARK  208  A    between atoms: _512  and  _513
REMARK  209  A    between atoms: _516  and  _518
REMARK  210  A    between atoms: _518  and  _519
REMARK  211  A    between atoms: _518  and  _521
REMARK  212  A    between atoms: _521  and  _522
REMARK  213  A    between atoms: _522  and  _523
REMARK  214  A    between atoms: _525  and  _527
REMARK  215  A    between atoms: _527  and  _528
REMARK  216  A    between atoms: _527  and  _530
REMARK  217  A    between atoms: _530  and  _531
REMARK  218  A    between atoms: _536  and  _537
REMARK  219  A    between atoms: _539  and  _541
REMARK  220  A    between atoms: _541  and  _542
REMARK  221  A    between atoms: _541  and  _544
REMARK  222  A    between atoms: _544  and  _545
REMARK  223  A    between atoms: _548  and  _550
REMARK  224  A    between atoms: _550  and  _551
REMARK  225  A    between atoms: _550  and  _553
REMARK  226  A    between atoms: _553  and  _554
REMARK  227  A    between atoms: _559  and  _560
REMARK                            x       y       z     vdW  Elec       q    Type
REMARK                         _______ _______ _______ _____ _____    ______ ____
ROOT
ATOM      1  CA  ASN A   4      16.895  77.238   7.763  0.00  0.00    +0.158 C 
ENDROOT
BRANCH   1   2
ATOM      2  C   ASN A   4      17.988  77.007   8.800  0.00  0.00    +0.241 C 
ATOM      3  O   ASN A   4      17.872  77.446   9.946  0.00  0.00    -0.273 OA
ATOM      4  N   CYS A   5      19.031  76.287   8.403  0.00  0.00    -0.296 N 
ATOM      5  H   CYS A   5      19.002  75.851   7.459  0.00  0.00    +0.150 HD
BRANCH   4   6
ATOM      6  CA  CYS A   5      20.215  76.078   9.227  0.00  0.00    +0.160 C 
BRANCH   6   7
ATOM      7  C   CYS A   5      21.377  76.625   8.409  0.00  0.00    +0.242 C 
ATOM      8  N   MET A   6      22.208  77.458   9.025  0.00  0.00    -0.297 N 
ATOM      9  H   MET A   6      22.121  77.604  10.051  0.00  0.00    +0.150 HD
ATOM     10  O   CYS A   5      21.490  76.328   7.209  0.00  0.00    -0.273 OA
BRANCH   8  11
ATOM     11  CA  MET A   6      23.243  78.172   8.281  0.00  0.00    +0.149 C 
BRANCH  11  12
ATOM     12  C   MET A   6      24.622  77.617   8.606  0.00  0.00    +0.241 C 
ATOM     13  O   MET A   6      24.806  77.009   9.658  0.00  0.00    -0.273 OA
ATOM     14  N   LEU A   7      25.575  77.816   7.698  0.00  0.00    -0.297 N 
ATOM     15  H   LEU A   7      25.338  78.326   6.823  0.00  0.00    +0.150 HD
BRANCH  14  16
ATOM     16  CA  LEU A   7      26.946  77.340   7.892  0.00  0.00    +0.149 C 
BRANCH  16  17
ATOM     17  C   LEU A   7      27.886  78.533   7.893  0.00  0.00    +0.241 C 
ATOM     18  N   ASP A   8      28.570  78.786   9.007  0.00  0.00    -0.298 N 
ATOM     19  H   ASP A   8      28.435  78.196   9.853  0.00  0.00    +0.150 HD
ATOM     20  O   LEU A   7      27.995  79.230   6.881  0.00  0.00    -0.273 OA
BRANCH  18  21
ATOM     21  CA  ASP A   8      29.519  79.909   9.027  0.00  0.00    +0.148 C 
BRANCH  21  22
ATOM     22  C   ASP A   8      30.863  79.561   8.368  0.00  0.00    +0.227 C 
ATOM     23  O   ASP A   8      31.023  78.471   7.812  0.00  0.00    -0.286 OA
ENDBRANCH  21  22
BRANCH  21  24
ATOM     24  CB  ASP A   8      29.699  80.482  10.439  0.00  0.00    +0.142 C 
BRANCH  24  25
ATOM     25  CG  ASP A   8      30.476  79.562  11.370  0.00  0.00    +0.367 C 
ATOM     26  OD2 ASP A   8      30.412  79.691  12.612  0.00  0.00    -0.246 OA
ATOM     27  OD1 ASP A   8      31.208  78.657  10.898  0.00  0.00    -0.246 OA
ENDBRANCH  24  25
ENDBRANCH  21  24
ENDBRANCH  18  21
ENDBRANCH  16  17
BRANCH  16  28
ATOM     28  CB  LEU A   7      27.355  76.392   6.754  0.00  0.00    +0.029 C 
BRANCH  28  29
ATOM     29  CG  LEU A   7      27.553  74.891   6.949  0.00  0.00    +0.002 C 
ATOM     30  CD2 LEU A   7      28.308  74.541   8.214  0.00  0.00    +0.000 C 
ATOM     31  CD1 LEU A   7      28.261  74.308   5.742  0.00  0.00    +0.000 C 
ENDBRANCH  28  29
ENDBRANCH  16  28
ENDBRANCH  14  16
ENDBRANCH  11  12
BRANCH  11  32
ATOM     32  CB  MET A   6      23.190  79.672   8.584  0.00  0.00    +0.041 C 
BRANCH  32  33
ATOM     33  CG  MET A   6      21.789  80.301   8.525  0.00  0.00    +0.060 C 
BRANCH  33  34
ATOM     34  SD  MET A   6      21.017  80.201   6.881  0.00  0.00    -0.139 S 
ATOM     35  CE  MET A   6      21.874  81.503   6.074  0.00  0.00    +0.069 C 
ENDBRANCH  33  34
ENDBRANCH  32  33
ENDBRANCH  11  32
ENDBRANCH   8  11
ENDBRANCH   6   7
BRANCH   6  36
ATOM     36  CB  CYS A   5      20.399  74.591   9.528  0.00  0.00    +0.098 C 
ATOM     37  SG  CYS A   5      19.093  73.897  10.572  0.00  0.00    -0.080 S 
ENDBRANCH   6  36
ENDBRANCH   4   6
ENDBRANCH   1   2
BRANCH   1  39
ATOM     38  C   ARG A   3      17.172  76.753   5.369  0.00  0.00    +0.241 C 
ATOM     39  N   ASN A   4      16.960  76.333   6.618  0.00  0.00    -0.297 N 
ATOM     40  H   ASN A   4      16.835  75.314   6.784  0.00  0.00    +0.150 HD
ATOM     41  O   ARG A   3      17.470  77.926   5.072  0.00  0.00    -0.273 OA
BRANCH  38  42
ATOM     42  CA  ARG A   3      17.028  75.688   4.273  0.00  0.00    +0.149 C 
BRANCH  42  45
ATOM     43  C   ALA A   2      18.069  73.830   5.495  0.00  0.00    +0.241 C 
ATOM     44  O   ALA A   2      19.132  74.440   5.633  0.00  0.00    -0.273 OA
ATOM     45  N   ARG A   3      17.021  74.335   4.841  0.00  0.00    -0.297 N 
ATOM     46  H   ARG A   3      16.169  73.749   4.730  0.00  0.00    +0.150 HD
BRANCH  43  47
ATOM     47  CA  ALA A   2      17.904  72.421   6.084  0.00  0.00    +0.149 C 
ATOM     48  CB  ALA A   2      18.333  71.361   5.065  0.00  0.00    +0.031 C 
BRANCH  47  51
ATOM     49  C   ALA A   1      15.981  72.882   7.529  0.00  0.00    +0.238 C 
ATOM     50  O   ALA A   1      16.541  73.824   8.066  0.00  0.00    -0.274 OA
ATOM     51  N   ALA A   2      16.546  72.147   6.577  0.00  0.00    -0.297 N 
ATOM     52  H   ALA A   2      16.012  71.354   6.168  0.00  0.00    +0.150 HD
BRANCH  49  53
ATOM     53  CA  ALA A   1      14.569  72.525   7.930  0.00  0.00    +0.145 C 
ATOM     54  CB  ALA A   1      13.592  73.154   6.961  0.00  0.00    +0.028 C 
BRANCH  53  55
ATOM     55  N   ALA A   1      14.375  73.066   9.271  0.00  0.00    -0.238 NA
ATOM     56  H   ALA A   1      15.102  73.701   9.658  0.00  0.00    +0.142 HD
ENDBRANCH  53  55
ENDBRANCH  49  53
ENDBRANCH  47  51
ENDBRANCH  43  47
ENDBRANCH  42  45
BRANCH  42  57
ATOM     57  CB  ARG A   3      15.748  75.957   3.463  0.00  0.00    +0.033 C 
BRANCH  57  58
ATOM     58  CG  ARG A   3      14.495  75.960   4.317  0.00  0.00    +0.045 C 
BRANCH  58  59
ATOM     59  CD  ARG A   3      13.196  76.270   3.592  0.00  0.00    +0.174 C 
BRANCH  59  60
ATOM     60  NE  ARG A   3      12.078  76.038   4.509  0.00  0.00    -0.265 N 
ATOM     61  HE  ARG A   3      11.784  76.828   5.118  0.00  0.00    +0.259 HD
ATOM     62  CZ  ARG A   3      11.409  74.892   4.622  0.00  0.00    +0.342 C 
ATOM     63  NH2 ARG A   3      10.432  74.803   5.512  0.00  0.00    -0.292 N 
ATOM     64 HH21 ARG A   3      10.197  75.621   6.110  0.00  0.00    +0.255 HD
ATOM     65 HH22 ARG A   3       9.900  73.915   5.613  0.00  0.00    +0.255 HD
ATOM     66  NH1 ARG A   3      11.703  73.836   3.853  0.00  0.00    -0.292 N 
ATOM     67 HH11 ARG A   3      11.167  72.951   3.958  0.00  0.00    +0.255 HD
ATOM     68 HH12 ARG A   3      12.467  73.901   3.150  0.00  0.00    +0.255 HD
ENDBRANCH  59  60
ENDBRANCH  58  59
ENDBRANCH  57  58
ENDBRANCH  42  57
ENDBRANCH  38  42
ENDBRANCH   1  39
BRANCH   1  69
ATOM     69  CB  ASN A   4      15.515  77.126   8.430  0.00  0.00    +0.114 C 
BRANCH  69  70
ATOM     70  CG  ASN A   4      14.419  77.796   7.621  0.00  0.00    +0.222 C 
ATOM     71  ND2 ASN A   4      13.176  77.408   7.876  0.00  0.00    -0.329 N 
ATOM     72 HD21 ASN A   4      12.995  76.691   8.607  0.00  0.00    +0.145 HD
ATOM     73 HD22 ASN A   4      12.383  77.821   7.345  0.00  0.00    +0.145 HD
ATOM     74  OD1 ASN A   4      14.687  78.643   6.765  0.00  0.00    -0.275 OA
ENDBRANCH  69  70
ENDBRANCH   1  69
TORSDOF 30
REMARK  Name = ../refined-set-2016/2wgj/2wgj_pocket.pdb
REMARK  227 active torsions:
REMARK  status: ('A' for Active; 'I' for Inactive)
REMARK    1  A    between atoms: _1  and  _3
REMARK    2  A    between atoms: _3  and  _4
REMARK    3  A    between atoms: _3  and  _6
REMARK    4  A    between atoms: _9  and  _11
REMARK    5  A    between atoms: _11  and  _12
REMARK    6  A    between atoms: _11  and  _14
REMARK    7  A    between atoms: _14  and  _15
REMARK    8  A    between atoms: _18  and  _20
REMARK    9  A    between atoms: _20  and  _21
REMARK   10  A    between atoms: _23  and  _25
REMARK   11  A    between atoms: _25  and  _26
REMARK   12  A    between atoms: _25  and  _28
REMARK   13  A    between atoms: _28  and  _29
REMARK   14  A    between atoms: _29  and  _30
REMARK   15  A    between atoms: _30  and  _31
REMARK   16  A    between atoms: _40  and  _42
REMARK   17  A    between atoms: _42  and  _43
REMARK   18  A    between atoms: _45  and  _47
REMARK   19  A    between atoms: _47  and  _48
REMARK   20  A    between atoms: _50  and  _52
REMARK   21  A    between atoms: _52  and  _53
REMARK   22  A    between atoms: _52  and  _55
REMARK   23  A    between atoms: _57  and  _59
REMARK   24  A    between atoms: _59  and  _60
REMARK   25  A    between atoms: _59  and  _62
REMARK   26  A    between atoms: _65  and  _67
REMARK   27  A    between atoms: _67  and  _68
REMARK   28  A    between atoms: _67  and  _70
REMARK   29  A    between atoms: _70  and  _71
REMARK   30  A    between atoms: _76  and  _77
REMARK   31  A    between atoms: _79  and  _81
REMARK   32  A    between atoms: _81  and  _82
REMARK   33  A    between atoms: _81  and  _84
REMARK   34  A    between atoms: _84  and  _85
REMARK   35  A    between atoms: _90  and  _92
REMARK   36  A    between atoms: _92  and  _93
REMARK   37  A    between atoms: _92  and  _95
REMARK   38  A    between atoms: _95  and  _96
REMARK   39  A    between atoms: _101  and  _103
REMARK   40  A    between atoms: _103  and  _104
REMARK   41  A    between atoms: _103  and  _106
REMARK   42  A    between atoms: _108  and  _110
REMARK   43  A    between atoms: _110  and  _111
REMARK   44  A    between atoms: _114  and  _116
REMARK   45  A    between atoms: _116  and  _117
REMARK   46  A    between atoms: _116  and  _119
REMARK   47  A    between atoms: _122  and  _124
REMARK   48  A    between atoms: _124  and  _125
REMARK   49  A    between atoms: _124  and  _127
REMARK   50  A    between atoms: _127  and  _128
REMARK   51  A    between atoms: _128  and  _129
REMARK   52  A    between atoms: _129  and  _130
REMARK   53  A    between atoms: _130  and  _131
REMARK   54  A    between atoms: _135  and  _137
REMARK   55  A    between atoms: _137  and  _138
REMARK   56  A    between atoms: _137  and  _140
REMARK   57  A    between atoms: _140  and  _141
REMARK   58  A    between atoms: _143  and  _145
REMARK   59  A    between atoms: _145  and  _146
REMARK   60  A    between atoms: _145  and  _148
REMARK   61  A    between atoms: _148  and  _149
REMARK   62  A    between atoms: _149  and  _150
REMARK   63  A    between atoms: _152  and  _154
REMARK   64  A    between atoms: _154  and  _155
REMARK   65  A    between atoms: _154  and  _157
REMARK   66  A    between atoms: _157  and  _158
REMARK   67  A    between atoms: _161  and  _163
REMARK   68  A    between atoms: _163  and  _164
REMARK   69  A    between atoms: _163  and  _166
REMARK   70  A    between atoms: _166  and  _167
REMARK   71  A    between atoms: _169  and  _171
REMARK   72  A    between atoms: _171  and  _172
REMARK   73  A    between atoms: _171  and  _174
REMARK   74  A    between atoms: _177  and  _179
REMARK   75  A    between atoms: _179  and  _180
REMARK   76  A    between atoms: _179  and  _182
REMARK   77  A    between atoms: _185  and  _187
REMARK   78  A    between atoms: _187  and  _188
REMARK   79  A    between atoms: _187  and  _190
REMARK   80  A    between atoms: _190  and  _191
REMARK   81  A    between atoms: _195  and  _196
REMARK   82  A    between atoms: _201  and  _203
REMARK   83  A    between atoms: _203  and  _204
REMARK   84  A    between atoms: _203  and  _206
REMARK   85  A    between atoms: _206  and  _207
REMARK   86  A    between atoms: _212  and  _213
REMARK   87  A    between atoms: _215  and  _217
REMARK   88  A    between atoms: _217  and  _218
REMARK   89  A    between atoms: _217  and  _220
REMARK   90  A    between atoms: _220  and  _221
REMARK   91  A    between atoms: _221  and  _222
REMARK   92  A    between atoms: _224  and  _226
REMARK   93  A    between atoms: _226  and  _227
REMARK   94  A    between atoms: _226  and  _229
REMARK   95  A    between atoms: _229  and  _230
REMARK   96  A    between atoms: _230  and  _231
REMARK   97  A    between atoms: _231  and  _232
REMARK   98  A    between atoms: _232  and  _233
REMARK   99  A    between atoms: _237  and  _239
REMARK  100  A    between atoms: _239  and  _240
REMARK  101  A    between atoms: _239  and  _242
REMARK  102  A    between atoms: _242  and  _243
REMARK  103  A    between atoms: _248  and  _250
REMARK  104  A    between atoms: _250  and  _251
REMARK  105  A    between atoms: _253  and  _255
REMARK  106  A    between atoms: _255  and  _256
REMARK  107  A    between atoms: _255  and  _258
REMARK  108  A    between atoms: _258  and  _259
REMARK  109  A    between atoms: _262  and  _264
REMARK  110  A    between atoms: _264  and  _265
REMARK  111  A    between atoms: _264  and  _267
REMARK  112  A    between atoms: _267  and  _268
REMARK  113  A    between atoms: _271  and  _273
REMARK  114  A    between atoms: _273  and  _274
REMARK  115  A    between atoms: _273  and  _276
REMARK  116  A    between atoms: _276  and  _277
REMARK  117  A    between atoms: _277  and  _278
REMARK  118  A    between atoms: _278  and  _279
REMARK  119  A    between atoms: _288  and  _290
REMARK  120  A    between atoms: _290  and  _291
REMARK  121  A    between atoms: _290  and  _293
REMARK  122  A    between atoms: _293  and  _294
REMARK  123  A    between atoms: _299  and  _301
REMARK  124  A    between atoms: _301  and  _302
REMARK  125  A    between atoms: _301  and  _304
REMARK  126  A    between atoms: _304  and  _305
REMARK  127  A    between atoms: _311  and  _313
REMARK  128  A    between atoms: _313  and  _314
REMARK  129  A    between atoms: _313  and  _316
REMARK  130  A    between atoms: _316  and  _317
REMARK  131  A    between atoms: _322  and  _324
REMARK  132  A    between atoms: _324  and  _325
REMARK  133  A    between atoms: _324  and  _327
REMARK  134  A    between atoms: _327  and  _328
REMARK  135  A    between atoms: _333  and  _335
REMARK  136  A    between atoms: _335  and  _336
REMARK  137  A    between atoms: _335  and  _338
REMARK  138  A    between atoms: _338  and  _339
REMARK  139  A    between atoms: _344  and  _346
REMARK  140  A    between atoms: _346  and  _347
REMARK  141  A    between atoms: _346  and  _349
REMARK  142  A    between atoms: _349  and  _350
REMARK  143  A    between atoms: _353  and  _355
REMARK  144  A    between atoms: _355  and  _356
REMARK  145  A    between atoms: _359  and  _361
REMARK  146  A    between atoms: _361  and  _362
REMARK  147  A    between atoms: _365  and  _367
REMARK  148  A    between atoms: _367  and  _368
REMARK  149  A    between atoms: _367  and  _370
REMARK  150  A    between atoms: _370  and  _371
REMARK  151  A    between atoms: _371  and  _372
REMARK  152  A    between atoms: _372  and  _373
REMARK  153  A    between atoms: _382  and  _384
REMARK  154  A    between atoms: _384  and  _385
REMARK  155  A    between atoms: _384  and  _387
REMARK  156  A    between atoms: _387  and  _388
REMARK  157  A    between atoms: _393  and  _395
REMARK  158  A    between atoms: _395  and  _396
REMARK  159  A    between atoms: _395  and  _398
REMARK  160  A    between atoms: _400  and  _402
REMARK  161  A    between atoms: _402  and  _403
REMARK  162  A    between atoms: _402  and  _405
REMARK  163  A    between atoms: _405  and  _406
REMARK  164  A    between atoms: _406  and  _407
REMARK  165  A    between atoms: _409  and  _411
REMARK  166  A    between atoms: _411  and  _412
REMARK  167  A    between atoms: _411  and  _414
REMARK  168  A    between atoms: _414  and  _415
REMARK  169  A    between atoms: _418  and  _420
REMARK  170  A    between atoms: _420  and  _421
REMARK  171  A    between atoms: _420  and  _423
REMARK  172  A    between atoms: _423  and  _424
REMARK  173  A    between atoms: _427  and  _429
REMARK  174  A    between atoms: _429  and  _430
REMARK  175  A    between atoms: _429  and  _432
REMARK  176  A    between atoms: _432  and  _433
REMARK  177  A    between atoms: _433  and  _434
REMARK  178  A    between atoms: _434  and  _435
REMARK  179  A    between atoms: _435  and  _436
REMARK  180  A    between atoms: _440  and  _442
REMARK  181  A    between atoms: _442  and  _443
REMARK  182  A    between atoms: _442  and  _445
REMARK  183  A    between atoms: _448  and  _450
REMARK  184  A    between atoms: _450  and  _451
REMARK  185  A    between atoms: _454  and  _456
REMARK  186  A    between atoms: _456  and  _457
REMARK  187  A    between atoms: _456  and  _459
REMARK  188  A    between atoms: _459  and  _460
REMARK  189  A    between atoms: _463  and  _465
REMARK  190  A    between atoms: _465  and  _466
REMARK  191  A    between atoms: _465  and  _468
REMARK  192  A    between atoms: _468  and  _469
REMARK  193  A    between atoms: _475  and  _477
REMARK  194  A    between atoms: _477  and  _478
REMARK  195  A    between atoms: _477  and  _480
REMARK  196  A    between atoms: _480  and  _481
REMARK  197  A    between atoms: _484  and  _486
REMARK  198  A    between atoms: _486  and  _487
REMARK  199  A    between atoms: _490  and  _492
REMARK  200  A    between atoms: _492  and  _493
REMARK  201  A    between atoms: _492  and  _495
REMARK  202  A    between atoms: _495  and  _496
REMARK  203  A    between atoms: _496  and  _497
REMARK  204  A    between atoms: _497  and  _498
REMARK  205  A    between atoms: _507  and  _509
REMARK  206  A    between atoms: _509  and  _510
REMARK  207  A    between atoms: _509  and  _512
REMARK  208  A    between atoms: _512  and  _513
REMARK  209  A    between atoms: _516  and  _518
REMARK  210  A    between atoms: _518  and  _519
REMARK  211  A    between atoms: _518  and  _521
REMARK  212  A    between atoms: _521  and  _522
REMARK  213  A    between atoms: _522  and  _523
REMARK  214  A    between atoms: _525  and  _527
REMARK  215  A    between atoms: _527  and  _528
REMARK  216  A    between atoms: _527  and  _530
REMARK  217  A    between atoms: _530  and  _531
REMARK  218  A    between atoms: _536  and  _537
REMARK  219  A    between atoms: _539  and  _541
REMARK  220  A    between atoms: _541  and  _542
REMARK  221  A    between atoms: _541  and  _544
REMARK  222  A    between atoms: _544  and  _545
REMARK  223  A    between atoms: _548  and  _550
REMARK  224  A    between atoms: _550  and  _551
REMARK  225  A    between atoms: _550  and  _553
REMARK  226  A    between atoms: _553  and  _554
REMARK  227  A    between atoms: _559  and  _560
REMARK                            x       y       z     vdW  Elec       q    Type
REMARK                         _______ _______ _______ _____ _____    ______ ____
ROOT
ATOM      1  CA  ALA A   3      18.239  79.919  12.223  0.00  0.00    +0.149 C 
ATOM      2  CB  ALA A   3      19.105  80.546  11.134  0.00  0.00    +0.031 C 
ENDROOT
BRANCH   1   3
ATOM      3  C   ALA A   3      16.770  79.971  11.837  0.00  0.00    +0.241 C 
ATOM      4  O   ALA A   3      16.000  79.072  12.176  0.00  0.00    -0.273 OA
ATOM      5  N   ASP A   4      16.404  81.027  11.115  0.00  0.00    -0.297 N 
ATOM      6  H   ASP A   4      17.149  81.668  10.774  0.00  0.00    +0.150 HD
BRANCH   5   7
ATOM      7  CA  ASP A   4      15.022  81.339  10.773  0.00  0.00    +0.160 C 
BRANCH   7   8
ATOM      8  C   ASP A   4      14.040  81.261  11.954  0.00  0.00    +0.241 C 
ATOM      9  N   PHE A   5      14.447  81.833  13.078  0.00  0.00    -0.298 N 
ATOM     10  H   PHE A   5      15.416  82.206  13.131  0.00  0.00    +0.150 HD
ATOM     11  O   ASP A   4      12.945  80.698  11.849  0.00  0.00    -0.273 OA
BRANCH   9  12
ATOM     12  CA  PHE A   5      13.578  81.956  14.243  0.00  0.00    +0.141 C 
BRANCH  12  13
ATOM     13  C   PHE A   5      13.738  83.371  14.794  0.00  0.00    +0.227 C 
ATOM     14  O   PHE A   5      14.716  84.062  14.475  0.00  0.00    -0.286 OA
ENDBRANCH  12  13
BRANCH  12  15
ATOM     15  CB  PHE A   5      13.923  80.892  15.305  0.00  0.00    +0.054 C 
BRANCH  15  16
ATOM     16  CG  PHE A   5      15.221  81.146  16.019  0.00  0.00    -0.020 A 
ATOM     17  CD2 PHE A   5      15.253  81.896  17.188  0.00  0.00    -0.004 A 
ATOM     18  CE2 PHE A   5      16.458  82.141  17.846  0.00  0.00    -0.000 A 
ATOM     19  CZ  PHE A   5      17.647  81.634  17.331  0.00  0.00    -0.000 A 
ATOM     20  CE1 PHE A   5      17.627  80.888  16.168  0.00  0.00    -0.000 A 
ATOM     21  CD1 PHE A   5      16.413  80.644  15.520  0.00  0.00    -0.004 A 
ENDBRANCH  15  16
ENDBRANCH  12  15
ENDBRANCH   9  12
ENDBRANCH   7   8
BRANCH   7  22
ATOM     22  CB  ASP A   4      14.549  80.498   9.589  0.00  0.00    +0.143 C 
BRANCH  22  23
ATOM     23  CG  ASP A   4      13.316  81.074   8.933  0.00  0.00    +0.367 C 
ATOM     24  OD2 ASP A   4      13.078  82.294   9.073  0.00  0.00    -0.246 OA
ATOM     25  OD1 ASP A   4      12.522  80.384   8.270  0.00  0.00    -0.246 OA
ENDBRANCH  22  23
ENDBRANCH   7  22
ENDBRANCH   5   7
ENDBRANCH   1   3
BRANCH   1  28
ATOM     26  C   VAL A   2      19.440  78.276  13.551  0.00  0.00    +0.241 C 
ATOM     27  O   VAL A   2      19.742  79.111  14.403  0.00  0.00    -0.273 OA
ATOM     28  N   ALA A   3      18.681  78.560  12.498  0.00  0.00    -0.297 N 
ATOM     29  H   ALA A   3      18.396  77.793  11.856  0.00  0.00    +0.150 HD
BRANCH  26  30
ATOM     30  CA  VAL A   2      19.972  76.845  13.638  0.00  0.00    +0.148 C 
BRANCH  30  32
ATOM     31  C   LYS A   1      22.176  77.467  12.798  0.00  0.00    +0.238 C 
ATOM     32  N   VAL A   2      21.424  76.936  13.756  0.00  0.00    -0.297 N 
ATOM     33  H   VAL A   2      21.884  76.574  14.616  0.00  0.00    +0.150 HD
ATOM     34  O   LYS A   1      21.739  77.771  11.692  0.00  0.00    -0.274 OA
BRANCH  31  35
ATOM     35  CA  LYS A   1      23.648  77.676  13.131  0.00  0.00    +0.145 C 
BRANCH  35  36
ATOM     36  N   LYS A   1      24.520  76.893  12.253  0.00  0.00    -0.238 NA
ATOM     37  H   LYS A   1      24.572  77.128  11.241  0.00  0.00    +0.142 HD
ENDBRANCH  35  36
BRANCH  35  38
ATOM     38  CB  LYS A   1      23.984  79.173  13.081  0.00  0.00    +0.026 C 
BRANCH  38  39
ATOM     39  CG  LYS A   1      25.471  79.503  13.123  0.00  0.00    -0.000 C 
BRANCH  39  40
ATOM     40  CD  LYS A   1      25.961  79.680  14.538  0.00  0.00    -0.024 C 
BRANCH  40  41
ATOM     41  CE  LYS A   1      27.447  79.979  14.565  0.00  0.00    -0.086 C 
BRANCH  41  42
ATOM     42  NZ  LYS A   1      27.950  80.071  15.957  0.00  0.00    +0.380 N 
ATOM     43  HZ1 LYS A   1      27.448  80.833  16.456  0.00  0.00    -0.089 HD
ATOM     44  HZ2 LYS A   1      27.784  79.168  16.445  0.00  0.00    -0.089 HD
ATOM     45  HZ3 LYS A   1      28.969  80.276  15.943  0.00  0.00    -0.089 HD
ENDBRANCH  41  42
ENDBRANCH  40  41
ENDBRANCH  39  40
ENDBRANCH  38  39
ENDBRANCH  35  38
ENDBRANCH  31  35
ENDBRANCH  30  32
BRANCH  30  46
ATOM     46  CB  VAL A   2      19.349  76.074  14.834  0.00  0.00    +0.027 C 
ATOM     47  CG2 VAL A   2      19.901  74.647  14.892  0.00  0.00    +0.002 C 
ATOM     48  CG1 VAL A   2      17.830  76.028  14.740  0.00  0.00    +0.002 C 
ENDBRANCH  30  46
ENDBRANCH  26  30
ENDBRANCH   1  28
TORSDOF 20
REMARK  Name = ../refined-set-2016/2wgj/2wgj_pocket.pdb
REMARK  227 active torsions:
REMARK  status: ('A' for Active; 'I' for Inactive)
REMARK    1  A    between atoms: _1  and  _3
REMARK    2  A    between atoms: _3  and  _4
REMARK    3  A    between atoms: _3  and  _6
REMARK    4  A    between atoms: _9  and  _11
REMARK    5  A    between atoms: _11  and  _12
REMARK    6  A    between atoms: _11  and  _14
REMARK    7  A    between atoms: _14  and  _15
REMARK    8  A    between atoms: _18  and  _20
REMARK    9  A    between atoms: _20  and  _21
REMARK   10  A    between atoms: _23  and  _25
REMARK   11  A    between atoms: _25  and  _26
REMARK   12  A    between atoms: _25  and  _28
REMARK   13  A    between atoms: _28  and  _29
REMARK   14  A    between atoms: _29  and  _30
REMARK   15  A    between atoms: _30  and  _31
REMARK   16  A    between atoms: _40  and  _42
REMARK   17  A    between atoms: _42  and  _43
REMARK   18  A    between atoms: _45  and  _47
REMARK   19  A    between atoms: _47  and  _48
REMARK   20  A    between atoms: _50  and  _52
REMARK   21  A    between atoms: _52  and  _53
REMARK   22  A    between atoms: _52  and  _55
REMARK   23  A    between atoms: _57  and  _59
REMARK   24  A    between atoms: _59  and  _60
REMARK   25  A    between atoms: _59  and  _62
REMARK   26  A    between atoms: _65  and  _67
REMARK   27  A    between atoms: _67  and  _68
REMARK   28  A    between atoms: _67  and  _70
REMARK   29  A    between atoms: _70  and  _71
REMARK   30  A    between atoms: _76  and  _77
REMARK   31  A    between atoms: _79  and  _81
REMARK   32  A    between atoms: _81  and  _82
REMARK   33  A    between atoms: _81  and  _84
REMARK   34  A    between atoms: _84  and  _85
REMARK   35  A    between atoms: _90  and  _92
REMARK   36  A    between atoms: _92  and  _93
REMARK   37  A    between atoms: _92  and  _95
REMARK   38  A    between atoms: _95  and  _96
REMARK   39  A    between atoms: _101  and  _103
REMARK   40  A    between atoms: _103  and  _104
REMARK   41  A    between atoms: _103  and  _106
REMARK   42  A    between atoms: _108  and  _110
REMARK   43  A    between atoms: _110  and  _111
REMARK   44  A    between atoms: _114  and  _116
REMARK   45  A    between atoms: _116  and  _117
REMARK   46  A    between atoms: _116  and  _119
REMARK   47  A    between atoms: _122  and  _124
REMARK   48  A    between atoms: _124  and  _125
REMARK   49  A    between atoms: _124  and  _127
REMARK   50  A    between atoms: _127  and  _128
REMARK   51  A    between atoms: _128  and  _129
REMARK   52  A    between atoms: _129  and  _130
REMARK   53  A    between atoms: _130  and  _131
REMARK   54  A    between atoms: _135  and  _137
REMARK   55  A    between atoms: _137  and  _138
REMARK   56  A    between atoms: _137  and  _140
REMARK   57  A    between atoms: _140  and  _141
REMARK   58  A    between atoms: _143  and  _145
REMARK   59  A    between atoms: _145  and  _146
REMARK   60  A    between atoms: _145  and  _148
REMARK   61  A    between atoms: _148  and  _149
REMARK   62  A    between atoms: _149  and  _150
REMARK   63  A    between atoms: _152  and  _154
REMARK   64  A    between atoms: _154  and  _155
REMARK   65  A    between atoms: _154  and  _157
REMARK   66  A    between atoms: _157  and  _158
REMARK   67  A    between atoms: _161  and  _163
REMARK   68  A    between atoms: _163  and  _164
REMARK   69  A    between atoms: _163  and  _166
REMARK   70  A    between atoms: _166  and  _167
REMARK   71  A    between atoms: _169  and  _171
REMARK   72  A    between atoms: _171  and  _172
REMARK   73  A    between atoms: _171  and  _174
REMARK   74  A    between atoms: _177  and  _179
REMARK   75  A    between atoms: _179  and  _180
REMARK   76  A    between atoms: _179  and  _182
REMARK   77  A    between atoms: _185  and  _187
REMARK   78  A    between atoms: _187  and  _188
REMARK   79  A    between atoms: _187  and  _190
REMARK   80  A    between atoms: _190  and  _191
REMARK   81  A    between atoms: _195  and  _196
REMARK   82  A    between atoms: _201  and  _203
REMARK   83  A    between atoms: _203  and  _204
REMARK   84  A    between atoms: _203  and  _206
REMARK   85  A    between atoms: _206  and  _207
REMARK   86  A    between atoms: _212  and  _213
REMARK   87  A    between atoms: _215  and  _217
REMARK   88  A    between atoms: _217  and  _218
REMARK   89  A    between atoms: _217  and  _220
REMARK   90  A    between atoms: _220  and  _221
REMARK   91  A    between atoms: _221  and  _222
REMARK   92  A    between atoms: _224  and  _226
REMARK   93  A    between atoms: _226  and  _227
REMARK   94  A    between atoms: _226  and  _229
REMARK   95  A    between atoms: _229  and  _230
REMARK   96  A    between atoms: _230  and  _231
REMARK   97  A    between atoms: _231  and  _232
REMARK   98  A    between atoms: _232  and  _233
REMARK   99  A    between atoms: _237  and  _239
REMARK  100  A    between atoms: _239  and  _240
REMARK  101  A    between atoms: _239  and  _242
REMARK  102  A    between atoms: _242  and  _243
REMARK  103  A    between atoms: _248  and  _250
REMARK  104  A    between atoms: _250  and  _251
REMARK  105  A    between atoms: _253  and  _255
REMARK  106  A    between atoms: _255  and  _256
REMARK  107  A    between atoms: _255  and  _258
REMARK  108  A    between atoms: _258  and  _259
REMARK  109  A    between atoms: _262  and  _264
REMARK  110  A    between atoms: _264  and  _265
REMARK  111  A    between atoms: _264  and  _267
REMARK  112  A    between atoms: _267  and  _268
REMARK  113  A    between atoms: _271  and  _273
REMARK  114  A    between atoms: _273  and  _274
REMARK  115  A    between atoms: _273  and  _276
REMARK  116  A    between atoms: _276  and  _277
REMARK  117  A    between atoms: _277  and  _278
REMARK  118  A    between atoms: _278  and  _279
REMARK  119  A    between atoms: _288  and  _290
REMARK  120  A    between atoms: _290  and  _291
REMARK  121  A    between atoms: _290  and  _293
REMARK  122  A    between atoms: _293  and  _294
REMARK  123  A    between atoms: _299  and  _301
REMARK  124  A    between atoms: _301  and  _302
REMARK  125  A    between atoms: _301  and  _304
REMARK  126  A    between atoms: _304  and  _305
REMARK  127  A    between atoms: _311  and  _313
REMARK  128  A    between atoms: _313  and  _314
REMARK  129  A    between atoms: _313  and  _316
REMARK  130  A    between atoms: _316  and  _317
REMARK  131  A    between atoms: _322  and  _324
REMARK  132  A    between atoms: _324  and  _325
REMARK  133  A    between atoms: _324  and  _327
REMARK  134  A    between atoms: _327  and  _328
REMARK  135  A    between atoms: _333  and  _335
REMARK  136  A    between atoms: _335  and  _336
REMARK  137  A    between atoms: _335  and  _338
REMARK  138  A    between atoms: _338  and  _339
REMARK  139  A    between atoms: _344  and  _346
REMARK  140  A    between atoms: _346  and  _347
REMARK  141  A    between atoms: _346  and  _349
REMARK  142  A    between atoms: _349  and  _350
REMARK  143  A    between atoms: _353  and  _355
REMARK  144  A    between atoms: _355  and  _356
REMARK  145  A    between atoms: _359  and  _361
REMARK  146  A    between atoms: _361  and  _362
REMARK  147  A    between atoms: _365  and  _367
REMARK  148  A    between atoms: _367  and  _368
REMARK  149  A    between atoms: _367  and  _370
REMARK  150  A    between atoms: _370  and  _371
REMARK  151  A    between atoms: _371  and  _372
REMARK  152  A    between atoms: _372  and  _373
REMARK  153  A    between atoms: _382  and  _384
REMARK  154  A    between atoms: _384  and  _385
REMARK  155  A    between atoms: _384  and  _387
REMARK  156  A    between atoms: _387  and  _388
REMARK  157  A    between atoms: _393  and  _395
REMARK  158  A    between atoms: _395  and  _396
REMARK  159  A    between atoms: _395  and  _398
REMARK  160  A    between atoms: _400  and  _402
REMARK  161  A    between atoms: _402  and  _403
REMARK  162  A    between atoms: _402  and  _405
REMARK  163  A    between atoms: _405  and  _406
REMARK  164  A    between atoms: _406  and  _407
REMARK  165  A    between atoms: _409  and  _411
REMARK  166  A    between atoms: _411  and  _412
REMARK  167  A    between atoms: _411  and  _414
REMARK  168  A    between atoms: _414  and  _415
REMARK  169  A    between atoms: _418  and  _420
REMARK  170  A    between atoms: _420  and  _421
REMARK  171  A    between atoms: _420  and  _423
REMARK  172  A    between atoms: _423  and  _424
REMARK  173  A    between atoms: _427  and  _429
REMARK  174  A    between atoms: _429  and  _430
REMARK  175  A    between atoms: _429  and  _432
REMARK  176  A    between atoms: _432  and  _433
REMARK  177  A    between atoms: _433  and  _434
REMARK  178  A    between atoms: _434  and  _435
REMARK  179  A    between atoms: _435  and  _436
REMARK  180  A    between atoms: _440  and  _442
REMARK  181  A    between atoms: _442  and  _443
REMARK  182  A    between atoms: _442  and  _445
REMARK  183  A    between atoms: _448  and  _450
REMARK  184  A    between atoms: _450  and  _451
REMARK  185  A    between atoms: _454  and  _456
REMARK  186  A    between atoms: _456  and  _457
REMARK  187  A    between atoms: _456  and  _459
REMARK  188  A    between atoms: _459  and  _460
REMARK  189  A    between atoms: _463  and  _465
REMARK  190  A    between atoms: _465  and  _466
REMARK  191  A    between atoms: _465  and  _468
REMARK  192  A    between atoms: _468  and  _469
REMARK  193  A    between atoms: _475  and  _477
REMARK  194  A    between atoms: _477  and  _478
REMARK  195  A    between atoms: _477  and  _480
REMARK  196  A    between atoms: _480  and  _481
REMARK  197  A    between atoms: _484  and  _486
REMARK  198  A    between atoms: _486  and  _487
REMARK  199  A    between atoms: _490  and  _492
REMARK  200  A    between atoms: _492  and  _493
REMARK  201  A    between atoms: _492  and  _495
REMARK  202  A    between atoms: _495  and  _496
REMARK  203  A    between atoms: _496  and  _497
REMARK  204  A    between atoms: _497  and  _498
REMARK  205  A    between atoms: _507  and  _509
REMARK  206  A    between atoms: _509  and  _510
REMARK  207  A    between atoms: _509  and  _512
REMARK  208  A    between atoms: _512  and  _513
REMARK  209  A    between atoms: _516  and  _518
REMARK  210  A    between atoms: _518  and  _519
REMARK  211  A    between atoms: _518  and  _521
REMARK  212  A    between atoms: _521  and  _522
REMARK  213  A    between atoms: _522  and  _523
REMARK  214  A    between atoms: _525  and  _527
REMARK  215  A    between atoms: _527  and  _528
REMARK  216  A    between atoms: _527  and  _530
REMARK  217  A    between atoms: _530  and  _531
REMARK  218  A    between atoms: _536  and  _537
REMARK  219  A    between atoms: _539  and  _541
REMARK  220  A    between atoms: _541  and  _542
REMARK  221  A    between atoms: _541  and  _544
REMARK  222  A    between atoms: _544  and  _545
REMARK  223  A    between atoms: _548  and  _550
REMARK  224  A    between atoms: _550  and  _551
REMARK  225  A    between atoms: _550  and  _553
REMARK  226  A    between atoms: _553  and  _554
REMARK  227  A    between atoms: _559  and  _560
REMARK                            x       y       z     vdW  Elec       q    Type
REMARK                         _______ _______ _______ _____ _____    ______ ____
ROOT
ATOM      1  CA  ASP A   4      10.574  84.497   7.381  0.00  0.00    +0.160 C 
ENDROOT
BRANCH   1   4
ATOM      2  C   ARG A   3      11.250  85.055   9.692  0.00  0.00    +0.241 C 
ATOM      3  O   ARG A   3      10.815  86.215   9.634  0.00  0.00    -0.273 OA
ATOM      4  N   ASP A   4      11.192  84.191   8.676  0.00  0.00    -0.297 N 
ATOM      5  H   ASP A   4      11.608  83.248   8.810  0.00  0.00    +0.150 HD
BRANCH   2   6
ATOM      6  CA  ARG A   3      11.908  84.521  10.977  0.00  0.00    +0.149 C 
BRANCH   6   8
ATOM      7  C   ALA A   2      14.018  85.758  10.762  0.00  0.00    +0.241 C 
ATOM      8  N   ARG A   3      13.009  85.331  11.518  0.00  0.00    -0.297 N 
ATOM      9  H   ARG A   3      12.999  85.579  12.528  0.00  0.00    +0.150 HD
ATOM     10  O   ALA A   2      14.036  85.612   9.545  0.00  0.00    -0.273 OA
BRANCH   7  11
ATOM     11  CA  ALA A   2      15.188  86.481  11.476  0.00  0.00    +0.149 C 
ATOM     12  CB  ALA A   2      16.398  85.552  11.600  0.00  0.00    +0.031 C 
BRANCH  11  14
ATOM     13  C   LEU A   1      14.171  88.113  12.988  0.00  0.00    +0.238 C 
ATOM     14  N   ALA A   2      14.818  86.971  12.793  0.00  0.00    -0.297 N 
ATOM     15  H   ALA A   2      15.073  86.399  13.623  0.00  0.00    +0.150 HD
ATOM     16  O   LEU A   1      13.943  88.930  12.088  0.00  0.00    -0.274 OA
BRANCH  13  17
ATOM     17  CA  LEU A   1      13.727  88.377  14.421  0.00  0.00    +0.145 C 
BRANCH  17  18
ATOM     18  N   LEU A   1      13.750  87.169  15.245  0.00  0.00    -0.238 NA
ATOM     19  H   LEU A   1      14.545  87.025  15.899  0.00  0.00    +0.142 HD
ENDBRANCH  17  18
BRANCH  17  20
ATOM     20  CB  LEU A   1      14.590  89.472  15.055  0.00  0.00    +0.026 C 
BRANCH  20  21
ATOM     21  CG  LEU A   1      14.117  89.989  16.419  0.00  0.00    +0.002 C 
ATOM     22  CD2 LEU A   1      15.183  90.879  17.036  0.00  0.00    +0.000 C 
ATOM     23  CD1 LEU A   1      12.799  90.735  16.296  0.00  0.00    +0.000 C 
ENDBRANCH  20  21
ENDBRANCH  17  20
ENDBRANCH  13  17
ENDBRANCH  11  14
ENDBRANCH   7  11
ENDBRANCH   6   8
BRANCH   6  24
ATOM     24  CB  ARG A   3      10.841  84.277  12.038  0.00  0.00    +0.033 C 
BRANCH  24  25
ATOM     25  CG  ARG A   3      10.131  82.948  11.883  0.00  0.00    +0.045 C 
BRANCH  25  26
ATOM     26  CD  ARG A   3       8.623  83.024  11.846  0.00  0.00    +0.174 C 
BRANCH  26  27
ATOM     27  NE  ARG A   3       8.083  84.090  12.687  0.00  0.00    -0.265 N 
ATOM     28  HE  ARG A   3       8.413  84.142  13.672  0.00  0.00    +0.259 HD
ATOM     29  CZ  ARG A   3       7.197  85.002  12.282  0.00  0.00    +0.342 C 
ATOM     30  NH2 ARG A   3       6.768  85.930  13.131  0.00  0.00    -0.292 N 
ATOM     31 HH21 ARG A   3       7.123  85.944  14.109  0.00  0.00    +0.255 HD
ATOM     32 HH22 ARG A   3       6.078  86.642  12.818  0.00  0.00    +0.255 HD
ATOM     33  NH1 ARG A   3       6.738  84.990  11.035  0.00  0.00    -0.292 N 
ATOM     34 HH11 ARG A   3       6.048  85.705  10.728  0.00  0.00    +0.255 HD
ATOM     35 HH12 ARG A   3       7.069  84.266  10.366  0.00  0.00    +0.255 HD
ENDBRANCH  26  27
ENDBRANCH  25  26
ENDBRANCH  24  25
ENDBRANCH   6  24
ENDBRANCH   2   6
ENDBRANCH   1   4
BRANCH   1  36
ATOM     36  C   ASP A   4      10.545  83.272   6.479  0.00  0.00    +0.241 C 
ATOM     37  O   ASP A   4      11.153  82.263   6.776  0.00  0.00    -0.273 OA
ATOM     38  N   MET A   5       9.832  83.377   5.367  0.00  0.00    -0.297 N 
ATOM     39  H   MET A   5       9.264  84.234   5.209  0.00  0.00    +0.150 HD
BRANCH  38  40
ATOM     40  CA  MET A   5       9.823  82.328   4.364  0.00  0.00    +0.149 C 
BRANCH  40  41
ATOM     41  C   MET A   5      10.770  82.718   3.237  0.00  0.00    +0.241 C 
ATOM     42  N   TYR A   6      11.951  82.113   3.241  0.00  0.00    -0.297 N 
ATOM     43  H   TYR A   6      12.134  81.361   3.936  0.00  0.00    +0.150 HD
ATOM     44  O   MET A   5      10.453  83.565   2.404  0.00  0.00    -0.273 OA
BRANCH  42  45
ATOM     45  CA  TYR A   6      13.001  82.479   2.292  0.00  0.00    +0.153 C 
BRANCH  45  46
ATOM     46  C   TYR A   6      13.005  81.592   1.051  0.00  0.00    +0.241 C 
ATOM     47  N   ASP A   7      12.253  80.491   1.111  0.00  0.00    -0.298 N 
ATOM     48  H   ASP A   7      11.851  80.211   2.028  0.00  0.00    +0.150 HD
ATOM     49  O   TYR A   6      13.686  81.896   0.069  0.00  0.00    -0.273 OA
BRANCH  47  50
ATOM     50  CA  ASP A   7      11.972  79.666  -0.055  0.00  0.00    +0.148 C 
BRANCH  50  51
ATOM     51  C   ASP A   7      10.481  79.358  -0.072  0.00  0.00    +0.227 C 
ATOM     52  O   ASP A   7      10.021  78.400   0.568  0.00  0.00    -0.286 OA
ENDBRANCH  50  51
BRANCH  50  53
ATOM     53  CB  ASP A   7      12.806  78.378  -0.034  0.00  0.00    +0.142 C 
BRANCH  53  54
ATOM     54  CG  ASP A   7      12.898  77.705  -1.404  0.00  0.00    +0.367 C 
ATOM     55  OD2 ASP A   7      13.763  76.847  -1.659  0.00  0.00    -0.246 OA
ATOM     56  OD1 ASP A   7      12.094  78.014  -2.319  0.00  0.00    -0.246 OA
ENDBRANCH  53  54
ENDBRANCH  50  53
ENDBRANCH  47  50
ENDBRANCH  45  46
BRANCH  45  57
ATOM     57  CB  TYR A   6      14.365  82.467   2.987  0.00  0.00    +0.055 C 
BRANCH  57  58
ATOM     58  CG  TYR A   6      14.458  83.495   4.087  0.00  0.00    -0.020 A 
ATOM     59  CD2 TYR A   6      14.418  83.115   5.418  0.00  0.00    -0.001 A 
ATOM     60  CE2 TYR A   6      14.499  84.048   6.435  0.00  0.00    +0.036 A 
ATOM     61  CZ  TYR A   6      14.609  85.388   6.130  0.00  0.00    +0.134 A 
ATOM     62  CE1 TYR A   6      14.643  85.804   4.806  0.00  0.00    +0.036 A 
ATOM     63  CD1 TYR A   6      14.573  84.851   3.792  0.00  0.00    -0.001 A 
BRANCH  61  64
ATOM     64  OH  TYR A   6      14.671  86.314   7.147  0.00  0.00    -0.506 OA
ATOM     65  HH  TYR A   6      13.849  86.256   7.695  0.00  0.00    +0.292 HD
ENDBRANCH  61  64
ENDBRANCH  57  58
ENDBRANCH  45  57
ENDBRANCH  42  45
ENDBRANCH  40  41
BRANCH  40  66
ATOM     66  CB  MET A   5       8.397  82.083   3.869  0.00  0.00    +0.041 C 
BRANCH  66  67
ATOM     67  CG  MET A   5       7.504  81.538   4.972  0.00  0.00    +0.060 C 
BRANCH  67  68
ATOM     68  SD  MET A   5       5.725  81.478   4.642  0.00  0.00    -0.139 S 
ATOM     69  CE  MET A   5       5.685  81.656   2.723  0.00  0.00    +0.069 C 
ENDBRANCH  67  68
ENDBRANCH  66  67
ENDBRANCH  40  66
ENDBRANCH  38  40
ENDBRANCH   1  36
BRANCH   1  70
ATOM     70  CB  ASP A   4      11.326  85.621   6.655  0.00  0.00    +0.143 C 
BRANCH  70  71
ATOM     71  CG  ASP A   4      10.403  86.534   5.862  0.00  0.00    +0.367 C 
ATOM     72  OD2 ASP A   4      10.739  87.693   5.552  0.00  0.00    -0.246 OA
ATOM     73  OD1 ASP A   4       9.272  86.124   5.502  0.00  0.00    -0.246 OA
ENDBRANCH  70  71
ENDBRANCH   1  70
TORSDOF 30
REMARK  Name = ../refined-set-2016/2wgj/2wgj_pocket.pdb
REMARK  227 active torsions:
REMARK  status: ('A' for Active; 'I' for Inactive)
REMARK    1  A    between atoms: _1  and  _3
REMARK    2  A    between atoms: _3  and  _4
REMARK    3  A    between atoms: _3  and  _6
REMARK    4  A    between atoms: _9  and  _11
REMARK    5  A    between atoms: _11  and  _12
REMARK    6  A    between atoms: _11  and  _14
REMARK    7  A    between atoms: _14  and  _15
REMARK    8  A    between atoms: _18  and  _20
REMARK    9  A    between atoms: _20  and  _21
REMARK   10  A    between atoms: _23  and  _25
REMARK   11  A    between atoms: _25  and  _26
REMARK   12  A    between atoms: _25  and  _28
REMARK   13  A    between atoms: _28  and  _29
REMARK   14  A    between atoms: _29  and  _30
REMARK   15  A    between atoms: _30  and  _31
REMARK   16  A    between atoms: _40  and  _42
REMARK   17  A    between atoms: _42  and  _43
REMARK   18  A    between atoms: _45  and  _47
REMARK   19  A    between atoms: _47  and  _48
REMARK   20  A    between atoms: _50  and  _52
REMARK   21  A    between atoms: _52  and  _53
REMARK   22  A    between atoms: _52  and  _55
REMARK   23  A    between atoms: _57  and  _59
REMARK   24  A    between atoms: _59  and  _60
REMARK   25  A    between atoms: _59  and  _62
REMARK   26  A    between atoms: _65  and  _67
REMARK   27  A    between atoms: _67  and  _68
REMARK   28  A    between atoms: _67  and  _70
REMARK   29  A    between atoms: _70  and  _71
REMARK   30  A    between atoms: _76  and  _77
REMARK   31  A    between atoms: _79  and  _81
REMARK   32  A    between atoms: _81  and  _82
REMARK   33  A    between atoms: _81  and  _84
REMARK   34  A    between atoms: _84  and  _85
REMARK   35  A    between atoms: _90  and  _92
REMARK   36  A    between atoms: _92  and  _93
REMARK   37  A    between atoms: _92  and  _95
REMARK   38  A    between atoms: _95  and  _96
REMARK   39  A    between atoms: _101  and  _103
REMARK   40  A    between atoms: _103  and  _104
REMARK   41  A    between atoms: _103  and  _106
REMARK   42  A    between atoms: _108  and  _110
REMARK   43  A    between atoms: _110  and  _111
REMARK   44  A    between atoms: _114  and  _116
REMARK   45  A    between atoms: _116  and  _117
REMARK   46  A    between atoms: _116  and  _119
REMARK   47  A    between atoms: _122  and  _124
REMARK   48  A    between atoms: _124  and  _125
REMARK   49  A    between atoms: _124  and  _127
REMARK   50  A    between atoms: _127  and  _128
REMARK   51  A    between atoms: _128  and  _129
REMARK   52  A    between atoms: _129  and  _130
REMARK   53  A    between atoms: _130  and  _131
REMARK   54  A    between atoms: _135  and  _137
REMARK   55  A    between atoms: _137  and  _138
REMARK   56  A    between atoms: _137  and  _140
REMARK   57  A    between atoms: _140  and  _141
REMARK   58  A    between atoms: _143  and  _145
REMARK   59  A    between atoms: _145  and  _146
REMARK   60  A    between atoms: _145  and  _148
REMARK   61  A    between atoms: _148  and  _149
REMARK   62  A    between atoms: _149  and  _150
REMARK   63  A    between atoms: _152  and  _154
REMARK   64  A    between atoms: _154  and  _155
REMARK   65  A    between atoms: _154  and  _157
REMARK   66  A    between atoms: _157  and  _158
REMARK   67  A    between atoms: _161  and  _163
REMARK   68  A    between atoms: _163  and  _164
REMARK   69  A    between atoms: _163  and  _166
REMARK   70  A    between atoms: _166  and  _167
REMARK   71  A    between atoms: _169  and  _171
REMARK   72  A    between atoms: _171  and  _172
REMARK   73  A    between atoms: _171  and  _174
REMARK   74  A    between atoms: _177  and  _179
REMARK   75  A    between atoms: _179  and  _180
REMARK   76  A    between atoms: _179  and  _182
REMARK   77  A    between atoms: _185  and  _187
REMARK   78  A    between atoms: _187  and  _188
REMARK   79  A    between atoms: _187  and  _190
REMARK   80  A    between atoms: _190  and  _191
REMARK   81  A    between atoms: _195  and  _196
REMARK   82  A    between atoms: _201  and  _203
REMARK   83  A    between atoms: _203  and  _204
REMARK   84  A    between atoms: _203  and  _206
REMARK   85  A    between atoms: _206  and  _207
REMARK   86  A    between atoms: _212  and  _213
REMARK   87  A    between atoms: _215  and  _217
REMARK   88  A    between atoms: _217  and  _218
REMARK   89  A    between atoms: _217  and  _220
REMARK   90  A    between atoms: _220  and  _221
REMARK   91  A    between atoms: _221  and  _222
REMARK   92  A    between atoms: _224  and  _226
REMARK   93  A    between atoms: _226  and  _227
REMARK   94  A    between atoms: _226  and  _229
REMARK   95  A    between atoms: _229  and  _230
REMARK   96  A    between atoms: _230  and  _231
REMARK   97  A    between atoms: _231  and  _232
REMARK   98  A    between atoms: _232  and  _233
REMARK   99  A    between atoms: _237  and  _239
REMARK  100  A    between atoms: _239  and  _240
REMARK  101  A    between atoms: _239  and  _242
REMARK  102  A    between atoms: _242  and  _243
REMARK  103  A    between atoms: _248  and  _250
REMARK  104  A    between atoms: _250  and  _251
REMARK  105  A    between atoms: _253  and  _255
REMARK  106  A    between atoms: _255  and  _256
REMARK  107  A    between atoms: _255  and  _258
REMARK  108  A    between atoms: _258  and  _259
REMARK  109  A    between atoms: _262  and  _264
REMARK  110  A    between atoms: _264  and  _265
REMARK  111  A    between atoms: _264  and  _267
REMARK  112  A    between atoms: _267  and  _268
REMARK  113  A    between atoms: _271  and  _273
REMARK  114  A    between atoms: _273  and  _274
REMARK  115  A    between atoms: _273  and  _276
REMARK  116  A    between atoms: _276  and  _277
REMARK  117  A    between atoms: _277  and  _278
REMARK  118  A    between atoms: _278  and  _279
REMARK  119  A    between atoms: _288  and  _290
REMARK  120  A    between atoms: _290  and  _291
REMARK  121  A    between atoms: _290  and  _293
REMARK  122  A    between atoms: _293  and  _294
REMARK  123  A    between atoms: _299  and  _301
REMARK  124  A    between atoms: _301  and  _302
REMARK  125  A    between atoms: _301  and  _304
REMARK  126  A    between atoms: _304  and  _305
REMARK  127  A    between atoms: _311  and  _313
REMARK  128  A    between atoms: _313  and  _314
REMARK  129  A    between atoms: _313  and  _316
REMARK  130  A    between atoms: _316  and  _317
REMARK  131  A    between atoms: _322  and  _324
REMARK  132  A    between atoms: _324  and  _325
REMARK  133  A    between atoms: _324  and  _327
REMARK  134  A    between atoms: _327  and  _328
REMARK  135  A    between atoms: _333  and  _335
REMARK  136  A    between atoms: _335  and  _336
REMARK  137  A    between atoms: _335  and  _338
REMARK  138  A    between atoms: _338  and  _339
REMARK  139  A    between atoms: _344  and  _346
REMARK  140  A    between atoms: _346  and  _347
REMARK  141  A    between atoms: _346  and  _349
REMARK  142  A    between atoms: _349  and  _350
REMARK  143  A    between atoms: _353  and  _355
REMARK  144  A    between atoms: _355  and  _356
REMARK  145  A    between atoms: _359  and  _361
REMARK  146  A    between atoms: _361  and  _362
REMARK  147  A    between atoms: _365  and  _367
REMARK  148  A    between atoms: _367  and  _368
REMARK  149  A    between atoms: _367  and  _370
REMARK  150  A    between atoms: _370  and  _371
REMARK  151  A    between atoms: _371  and  _372
REMARK  152  A    between atoms: _372  and  _373
REMARK  153  A    between atoms: _382  and  _384
REMARK  154  A    between atoms: _384  and  _385
REMARK  155  A    between atoms: _384  and  _387
REMARK  156  A    between atoms: _387  and  _388
REMARK  157  A    between atoms: _393  and  _395
REMARK  158  A    between atoms: _395  and  _396
REMARK  159  A    between atoms: _395  and  _398
REMARK  160  A    between atoms: _400  and  _402
REMARK  161  A    between atoms: _402  and  _403
REMARK  162  A    between atoms: _402  and  _405
REMARK  163  A    between atoms: _405  and  _406
REMARK  164  A    between atoms: _406  and  _407
REMARK  165  A    between atoms: _409  and  _411
REMARK  166  A    between atoms: _411  and  _412
REMARK  167  A    between atoms: _411  and  _414
REMARK  168  A    between atoms: _414  and  _415
REMARK  169  A    between atoms: _418  and  _420
REMARK  170  A    between atoms: _420  and  _421
REMARK  171  A    between atoms: _420  and  _423
REMARK  172  A    between atoms: _423  and  _424
REMARK  173  A    between atoms: _427  and  _429
REMARK  174  A    between atoms: _429  and  _430
REMARK  175  A    between atoms: _429  and  _432
REMARK  176  A    between atoms: _432  and  _433
REMARK  177  A    between atoms: _433  and  _434
REMARK  178  A    between atoms: _434  and  _435
REMARK  179  A    between atoms: _435  and  _436
REMARK  180  A    between atoms: _440  and  _442
REMARK  181  A    between atoms: _442  and  _443
REMARK  182  A    between atoms: _442  and  _445
REMARK  183  A    between atoms: _448  and  _450
REMARK  184  A    between atoms: _450  and  _451
REMARK  185  A    between atoms: _454  and  _456
REMARK  186  A    between atoms: _456  and  _457
REMARK  187  A    between atoms: _456  and  _459
REMARK  188  A    between atoms: _459  and  _460
REMARK  189  A    between atoms: _463  and  _465
REMARK  190  A    between atoms: _465  and  _466
REMARK  191  A    between atoms: _465  and  _468
REMARK  192  A    between atoms: _468  and  _469
REMARK  193  A    between atoms: _475  and  _477
REMARK  194  A    between atoms: _477  and  _478
REMARK  195  A    between atoms: _477  and  _480
REMARK  196  A    between atoms: _480  and  _481
REMARK  197  A    between atoms: _484  and  _486
REMARK  198  A    between atoms: _486  and  _487
REMARK  199  A    between atoms: _490  and  _492
REMARK  200  A    between atoms: _492  and  _493
REMARK  201  A    between atoms: _492  and  _495
REMARK  202  A    between atoms: _495  and  _496
REMARK  203  A    between atoms: _496  and  _497
REMARK  204  A    between atoms: _497  and  _498
REMARK  205  A    between atoms: _507  and  _509
REMARK  206  A    between atoms: _509  and  _510
REMARK  207  A    between atoms: _509  and  _512
REMARK  208  A    between atoms: _512  and  _513
REMARK  209  A    between atoms: _516  and  _518
REMARK  210  A    between atoms: _518  and  _519
REMARK  211  A    between atoms: _518  and  _521
REMARK  212  A    between atoms: _521  and  _522
REMARK  213  A    between atoms: _522  and  _523
REMARK  214  A    between atoms: _525  and  _527
REMARK  215  A    between atoms: _527  and  _528
REMARK  216  A    between atoms: _527  and  _530
REMARK  217  A    between atoms: _530  and  _531
REMARK  218  A    between atoms: _536  and  _537
REMARK  219  A    between atoms: _539  and  _541
REMARK  220  A    between atoms: _541  and  _542
REMARK  221  A    between atoms: _541  and  _544
REMARK  222  A    between atoms: _544  and  _545
REMARK  223  A    between atoms: _548  and  _550
REMARK  224  A    between atoms: _550  and  _551
REMARK  225  A    between atoms: _550  and  _553
REMARK  226  A    between atoms: _553  and  _554
REMARK  227  A    between atoms: _559  and  _560
REMARK                            x       y       z     vdW  Elec       q    Type
REMARK                         _______ _______ _______ _____ _____    ______ ____
ROOT
ATOM      1  CG  TYR A   1       6.696  78.188   3.583  0.00  0.00    -0.020 A 
ATOM      2  CD2 TYR A   1       6.705  77.910   4.950  0.00  0.00    -0.001 A 
ATOM      3  CE2 TYR A   1       7.890  77.903   5.676  0.00  0.00    +0.036 A 
ATOM      4  CZ  TYR A   1       9.093  78.158   5.029  0.00  0.00    +0.134 A 
ATOM      5  CE1 TYR A   1       9.115  78.414   3.663  0.00  0.00    +0.036 A 
ATOM      6  CD1 TYR A   1       7.917  78.429   2.951  0.00  0.00    -0.001 A 
ENDROOT
BRANCH   4   7
ATOM      7  OH  TYR A   1      10.274  78.142   5.750  0.00  0.00    -0.506 OA
ATOM      8  HH  TYR A   1      11.032  78.341   5.145  0.00  0.00    +0.292 HD
ENDBRANCH   4   7
BRANCH   1   9
ATOM      9  CB  TYR A   1       5.400  78.169   2.794  0.00  0.00    +0.051 C 
BRANCH   9  10
ATOM     10  CA  TYR A   1       5.123  76.787   2.182  0.00  0.00    +0.137 C 
BRANCH  10  11
ATOM     11  N   TYR A   1       6.216  76.396   1.308  0.00  0.00    -0.239 NA
ATOM     12  H   TYR A   1       6.410  76.970   0.462  0.00  0.00    +0.142 HD
ENDBRANCH  10  11
BRANCH  10  13
ATOM     13  C   TYR A   1       3.784  76.738   1.440  0.00  0.00    +0.224 C 
ATOM     14  O   TYR A   1       3.684  77.174   0.284  0.00  0.00    -0.287 OA
ENDBRANCH  10  13
ENDBRANCH   9  10
ENDBRANCH   1   9
TORSDOF 5
REMARK  Name = ../refined-set-2016/2wgj/2wgj_pocket.pdb
REMARK  227 active torsions:
REMARK  status: ('A' for Active; 'I' for Inactive)
REMARK    1  A    between atoms: _1  and  _3
REMARK    2  A    between atoms: _3  and  _4
REMARK    3  A    between atoms: _3  and  _6
REMARK    4  A    between atoms: _9  and  _11
REMARK    5  A    between atoms: _11  and  _12
REMARK    6  A    between atoms: _11  and  _14
REMARK    7  A    between atoms: _14  and  _15
REMARK    8  A    between atoms: _18  and  _20
REMARK    9  A    between atoms: _20  and  _21
REMARK   10  A    between atoms: _23  and  _25
REMARK   11  A    between atoms: _25  and  _26
REMARK   12  A    between atoms: _25  and  _28
REMARK   13  A    between atoms: _28  and  _29
REMARK   14  A    between atoms: _29  and  _30
REMARK   15  A    between atoms: _30  and  _31
REMARK   16  A    between atoms: _40  and  _42
REMARK   17  A    between atoms: _42  and  _43
REMARK   18  A    between atoms: _45  and  _47
REMARK   19  A    between atoms: _47  and  _48
REMARK   20  A    between atoms: _50  and  _52
REMARK   21  A    between atoms: _52  and  _53
REMARK   22  A    between atoms: _52  and  _55
REMARK   23  A    between atoms: _57  and  _59
REMARK   24  A    between atoms: _59  and  _60
REMARK   25  A    between atoms: _59  and  _62
REMARK   26  A    between atoms: _65  and  _67
REMARK   27  A    between atoms: _67  and  _68
REMARK   28  A    between atoms: _67  and  _70
REMARK   29  A    between atoms: _70  and  _71
REMARK   30  A    between atoms: _76  and  _77
REMARK   31  A    between atoms: _79  and  _81
REMARK   32  A    between atoms: _81  and  _82
REMARK   33  A    between atoms: _81  and  _84
REMARK   34  A    between atoms: _84  and  _85
REMARK   35  A    between atoms: _90  and  _92
REMARK   36  A    between atoms: _92  and  _93
REMARK   37  A    between atoms: _92  and  _95
REMARK   38  A    between atoms: _95  and  _96
REMARK   39  A    between atoms: _101  and  _103
REMARK   40  A    between atoms: _103  and  _104
REMARK   41  A    between atoms: _103  and  _106
REMARK   42  A    between atoms: _108  and  _110
REMARK   43  A    between atoms: _110  and  _111
REMARK   44  A    between atoms: _114  and  _116
REMARK   45  A    between atoms: _116  and  _117
REMARK   46  A    between atoms: _116  and  _119
REMARK   47  A    between atoms: _122  and  _124
REMARK   48  A    between atoms: _124  and  _125
REMARK   49  A    between atoms: _124  and  _127
REMARK   50  A    between atoms: _127  and  _128
REMARK   51  A    between atoms: _128  and  _129
REMARK   52  A    between atoms: _129  and  _130
REMARK   53  A    between atoms: _130  and  _131
REMARK   54  A    between atoms: _135  and  _137
REMARK   55  A    between atoms: _137  and  _138
REMARK   56  A    between atoms: _137  and  _140
REMARK   57  A    between atoms: _140  and  _141
REMARK   58  A    between atoms: _143  and  _145
REMARK   59  A    between atoms: _145  and  _146
REMARK   60  A    between atoms: _145  and  _148
REMARK   61  A    between atoms: _148  and  _149
REMARK   62  A    between atoms: _149  and  _150
REMARK   63  A    between atoms: _152  and  _154
REMARK   64  A    between atoms: _154  and  _155
REMARK   65  A    between atoms: _154  and  _157
REMARK   66  A    between atoms: _157  and  _158
REMARK   67  A    between atoms: _161  and  _163
REMARK   68  A    between atoms: _163  and  _164
REMARK   69  A    between atoms: _163  and  _166
REMARK   70  A    between atoms: _166  and  _167
REMARK   71  A    between atoms: _169  and  _171
REMARK   72  A    between atoms: _171  and  _172
REMARK   73  A    between atoms: _171  and  _174
REMARK   74  A    between atoms: _177  and  _179
REMARK   75  A    between atoms: _179  and  _180
REMARK   76  A    between atoms: _179  and  _182
REMARK   77  A    between atoms: _185  and  _187
REMARK   78  A    between atoms: _187  and  _188
REMARK   79  A    between atoms: _187  and  _190
REMARK   80  A    between atoms: _190  and  _191
REMARK   81  A    between atoms: _195  and  _196
REMARK   82  A    between atoms: _201  and  _203
REMARK   83  A    between atoms: _203  and  _204
REMARK   84  A    between atoms: _203  and  _206
REMARK   85  A    between atoms: _206  and  _207
REMARK   86  A    between atoms: _212  and  _213
REMARK   87  A    between atoms: _215  and  _217
REMARK   88  A    between atoms: _217  and  _218
REMARK   89  A    between atoms: _217  and  _220
REMARK   90  A    between atoms: _220  and  _221
REMARK   91  A    between atoms: _221  and  _222
REMARK   92  A    between atoms: _224  and  _226
REMARK   93  A    between atoms: _226  and  _227
REMARK   94  A    between atoms: _226  and  _229
REMARK   95  A    between atoms: _229  and  _230
REMARK   96  A    between atoms: _230  and  _231
REMARK   97  A    between atoms: _231  and  _232
REMARK   98  A    between atoms: _232  and  _233
REMARK   99  A    between atoms: _237  and  _239
REMARK  100  A    between atoms: _239  and  _240
REMARK  101  A    between atoms: _239  and  _242
REMARK  102  A    between atoms: _242  and  _243
REMARK  103  A    between atoms: _248  and  _250
REMARK  104  A    between atoms: _250  and  _251
REMARK  105  A    between atoms: _253  and  _255
REMARK  106  A    between atoms: _255  and  _256
REMARK  107  A    between atoms: _255  and  _258
REMARK  108  A    between atoms: _258  and  _259
REMARK  109  A    between atoms: _262  and  _264
REMARK  110  A    between atoms: _264  and  _265
REMARK  111  A    between atoms: _264  and  _267
REMARK  112  A    between atoms: _267  and  _268
REMARK  113  A    between atoms: _271  and  _273
REMARK  114  A    between atoms: _273  and  _274
REMARK  115  A    between atoms: _273  and  _276
REMARK  116  A    between atoms: _276  and  _277
REMARK  117  A    between atoms: _277  and  _278
REMARK  118  A    between atoms: _278  and  _279
REMARK  119  A    between atoms: _288  and  _290
REMARK  120  A    between atoms: _290  and  _291
REMARK  121  A    between atoms: _290  and  _293
REMARK  122  A    between atoms: _293  and  _294
REMARK  123  A    between atoms: _299  and  _301
REMARK  124  A    between atoms: _301  and  _302
REMARK  125  A    between atoms: _301  and  _304
REMARK  126  A    between atoms: _304  and  _305
REMARK  127  A    between atoms: _311  and  _313
REMARK  128  A    between atoms: _313  and  _314
REMARK  129  A    between atoms: _313  and  _316
REMARK  130  A    between atoms: _316  and  _317
REMARK  131  A    between atoms: _322  and  _324
REMARK  132  A    between atoms: _324  and  _325
REMARK  133  A    between atoms: _324  and  _327
REMARK  134  A    between atoms: _327  and  _328
REMARK  135  A    between atoms: _333  and  _335
REMARK  136  A    between atoms: _335  and  _336
REMARK  137  A    between atoms: _335  and  _338
REMARK  138  A    between atoms: _338  and  _339
REMARK  139  A    between atoms: _344  and  _346
REMARK  140  A    between atoms: _346  and  _347
REMARK  141  A    between atoms: _346  and  _349
REMARK  142  A    between atoms: _349  and  _350
REMARK  143  A    between atoms: _353  and  _355
REMARK  144  A    between atoms: _355  and  _356
REMARK  145  A    between atoms: _359  and  _361
REMARK  146  A    between atoms: _361  and  _362
REMARK  147  A    between atoms: _365  and  _367
REMARK  148  A    between atoms: _367  and  _368
REMARK  149  A    between atoms: _367  and  _370
REMARK  150  A    between atoms: _370  and  _371
REMARK  151  A    between atoms: _371  and  _372
REMARK  152  A    between atoms: _372  and  _373
REMARK  153  A    between atoms: _382  and  _384
REMARK  154  A    between atoms: _384  and  _385
REMARK  155  A    between atoms: _384  and  _387
REMARK  156  A    between atoms: _387  and  _388
REMARK  157  A    between atoms: _393  and  _395
REMARK  158  A    between atoms: _395  and  _396
REMARK  159  A    between atoms: _395  and  _398
REMARK  160  A    between atoms: _400  and  _402
REMARK  161  A    between atoms: _402  and  _403
REMARK  162  A    between atoms: _402  and  _405
REMARK  163  A    between atoms: _405  and  _406
REMARK  164  A    between atoms: _406  and  _407
REMARK  165  A    between atoms: _409  and  _411
REMARK  166  A    between atoms: _411  and  _412
REMARK  167  A    between atoms: _411  and  _414
REMARK  168  A    between atoms: _414  and  _415
REMARK  169  A    between atoms: _418  and  _420
REMARK  170  A    between atoms: _420  and  _421
REMARK  171  A    between atoms: _420  and  _423
REMARK  172  A    between atoms: _423  and  _424
REMARK  173  A    between atoms: _427  and  _429
REMARK  174  A    between atoms: _429  and  _430
REMARK  175  A    between atoms: _429  and  _432
REMARK  176  A    between atoms: _432  and  _433
REMARK  177  A    between atoms: _433  and  _434
REMARK  178  A    between atoms: _434  and  _435
REMARK  179  A    between atoms: _435  and  _436
REMARK  180  A    between atoms: _440  and  _442
REMARK  181  A    between atoms: _442  and  _443
REMARK  182  A    between atoms: _442  and  _445
REMARK  183  A    between atoms: _448  and  _450
REMARK  184  A    between atoms: _450  and  _451
REMARK  185  A    between atoms: _454  and  _456
REMARK  186  A    between atoms: _456  and  _457
REMARK  187  A    between atoms: _456  and  _459
REMARK  188  A    between atoms: _459  and  _460
REMARK  189  A    between atoms: _463  and  _465
REMARK  190  A    between atoms: _465  and  _466
REMARK  191  A    between atoms: _465  and  _468
REMARK  192  A    between atoms: _468  and  _469
REMARK  193  A    between atoms: _475  and  _477
REMARK  194  A    between atoms: _477  and  _478
REMARK  195  A    between atoms: _477  and  _480
REMARK  196  A    between atoms: _480  and  _481
REMARK  197  A    between atoms: _484  and  _486
REMARK  198  A    between atoms: _486  and  _487
REMARK  199  A    between atoms: _490  and  _492
REMARK  200  A    between atoms: _492  and  _493
REMARK  201  A    between atoms: _492  and  _495
REMARK  202  A    between atoms: _495  and  _496
REMARK  203  A    between atoms: _496  and  _497
REMARK  204  A    between atoms: _497  and  _498
REMARK  205  A    between atoms: _507  and  _509
REMARK  206  A    between atoms: _509  and  _510
REMARK  207  A    between atoms: _509  and  _512
REMARK  208  A    between atoms: _512  and  _513
REMARK  209  A    between atoms: _516  and  _518
REMARK  210  A    between atoms: _518  and  _519
REMARK  211  A    between atoms: _518  and  _521
REMARK  212  A    between atoms: _521  and  _522
REMARK  213  A    between atoms: _522  and  _523
REMARK  214  A    between atoms: _525  and  _527
REMARK  215  A    between atoms: _527  and  _528
REMARK  216  A    between atoms: _527  and  _530
REMARK  217  A    between atoms: _530  and  _531
REMARK  218  A    between atoms: _536  and  _537
REMARK  219  A    between atoms: _539  and  _541
REMARK  220  A    between atoms: _541  and  _542
REMARK  221  A    between atoms: _541  and  _544
REMARK  222  A    between atoms: _544  and  _545
REMARK  223  A    between atoms: _548  and  _550
REMARK  224  A    between atoms: _550  and  _551
REMARK  225  A    between atoms: _550  and  _553
REMARK  226  A    between atoms: _553  and  _554
REMARK  227  A    between atoms: _559  and  _560
REMARK                            x       y       z     vdW  Elec       q    Type
REMARK                         _______ _______ _______ _____ _____    ______ ____
ROOT
ATOM      1  O   HOH     1      18.911  81.461  -0.432  0.00  0.00    +0.000 OA
ENDROOT
TORSDOF 0
REMARK  Name = ../refined-set-2016/2wgj/2wgj_pocket.pdb
REMARK  227 active torsions:
REMARK  status: ('A' for Active; 'I' for Inactive)
REMARK    1  A    between atoms: _1  and  _3
REMARK    2  A    between atoms: _3  and  _4
REMARK    3  A    between atoms: _3  and  _6
REMARK    4  A    between atoms: _9  and  _11
REMARK    5  A    between atoms: _11  and  _12
REMARK    6  A    between atoms: _11  and  _14
REMARK    7  A    between atoms: _14  and  _15
REMARK    8  A    between atoms: _18  and  _20
REMARK    9  A    between atoms: _20  and  _21
REMARK   10  A    between atoms: _23  and  _25
REMARK   11  A    between atoms: _25  and  _26
REMARK   12  A    between atoms: _25  and  _28
REMARK   13  A    between atoms: _28  and  _29
REMARK   14  A    between atoms: _29  and  _30
REMARK   15  A    between atoms: _30  and  _31
REMARK   16  A    between atoms: _40  and  _42
REMARK   17  A    between atoms: _42  and  _43
REMARK   18  A    between atoms: _45  and  _47
REMARK   19  A    between atoms: _47  and  _48
REMARK   20  A    between atoms: _50  and  _52
REMARK   21  A    between atoms: _52  and  _53
REMARK   22  A    between atoms: _52  and  _55
REMARK   23  A    between atoms: _57  and  _59
REMARK   24  A    between atoms: _59  and  _60
REMARK   25  A    between atoms: _59  and  _62
REMARK   26  A    between atoms: _65  and  _67
REMARK   27  A    between atoms: _67  and  _68
REMARK   28  A    between atoms: _67  and  _70
REMARK   29  A    between atoms: _70  and  _71
REMARK   30  A    between atoms: _76  and  _77
REMARK   31  A    between atoms: _79  and  _81
REMARK   32  A    between atoms: _81  and  _82
REMARK   33  A    between atoms: _81  and  _84
REMARK   34  A    between atoms: _84  and  _85
REMARK   35  A    between atoms: _90  and  _92
REMARK   36  A    between atoms: _92  and  _93
REMARK   37  A    between atoms: _92  and  _95
REMARK   38  A    between atoms: _95  and  _96
REMARK   39  A    between atoms: _101  and  _103
REMARK   40  A    between atoms: _103  and  _104
REMARK   41  A    between atoms: _103  and  _106
REMARK   42  A    between atoms: _108  and  _110
REMARK   43  A    between atoms: _110  and  _111
REMARK   44  A    between atoms: _114  and  _116
REMARK   45  A    between atoms: _116  and  _117
REMARK   46  A    between atoms: _116  and  _119
REMARK   47  A    between atoms: _122  and  _124
REMARK   48  A    between atoms: _124  and  _125
REMARK   49  A    between atoms: _124  and  _127
REMARK   50  A    between atoms: _127  and  _128
REMARK   51  A    between atoms: _128  and  _129
REMARK   52  A    between atoms: _129  and  _130
REMARK   53  A    between atoms: _130  and  _131
REMARK   54  A    between atoms: _135  and  _137
REMARK   55  A    between atoms: _137  and  _138
REMARK   56  A    between atoms: _137  and  _140
REMARK   57  A    between atoms: _140  and  _141
REMARK   58  A    between atoms: _143  and  _145
REMARK   59  A    between atoms: _145  and  _146
REMARK   60  A    between atoms: _145  and  _148
REMARK   61  A    between atoms: _148  and  _149
REMARK   62  A    between atoms: _149  and  _150
REMARK   63  A    between atoms: _152  and  _154
REMARK   64  A    between atoms: _154  and  _155
REMARK   65  A    between atoms: _154  and  _157
REMARK   66  A    between atoms: _157  and  _158
REMARK   67  A    between atoms: _161  and  _163
REMARK   68  A    between atoms: _163  and  _164
REMARK   69  A    between atoms: _163  and  _166
REMARK   70  A    between atoms: _166  and  _167
REMARK   71  A    between atoms: _169  and  _171
REMARK   72  A    between atoms: _171  and  _172
REMARK   73  A    between atoms: _171  and  _174
REMARK   74  A    between atoms: _177  and  _179
REMARK   75  A    between atoms: _179  and  _180
REMARK   76  A    between atoms: _179  and  _182
REMARK   77  A    between atoms: _185  and  _187
REMARK   78  A    between atoms: _187  and  _188
REMARK   79  A    between atoms: _187  and  _190
REMARK   80  A    between atoms: _190  and  _191
REMARK   81  A    between atoms: _195  and  _196
REMARK   82  A    between atoms: _201  and  _203
REMARK   83  A    between atoms: _203  and  _204
REMARK   84  A    between atoms: _203  and  _206
REMARK   85  A    between atoms: _206  and  _207
REMARK   86  A    between atoms: _212  and  _213
REMARK   87  A    between atoms: _215  and  _217
REMARK   88  A    between atoms: _217  and  _218
REMARK   89  A    between atoms: _217  and  _220
REMARK   90  A    between atoms: _220  and  _221
REMARK   91  A    between atoms: _221  and  _222
REMARK   92  A    between atoms: _224  and  _226
REMARK   93  A    between atoms: _226  and  _227
REMARK   94  A    between atoms: _226  and  _229
REMARK   95  A    between atoms: _229  and  _230
REMARK   96  A    between atoms: _230  and  _231
REMARK   97  A    between atoms: _231  and  _232
REMARK   98  A    between atoms: _232  and  _233
REMARK   99  A    between atoms: _237  and  _239
REMARK  100  A    between atoms: _239  and  _240
REMARK  101  A    between atoms: _239  and  _242
REMARK  102  A    between atoms: _242  and  _243
REMARK  103  A    between atoms: _248  and  _250
REMARK  104  A    between atoms: _250  and  _251
REMARK  105  A    between atoms: _253  and  _255
REMARK  106  A    between atoms: _255  and  _256
REMARK  107  A    between atoms: _255  and  _258
REMARK  108  A    between atoms: _258  and  _259
REMARK  109  A    between atoms: _262  and  _264
REMARK  110  A    between atoms: _264  and  _265
REMARK  111  A    between atoms: _264  and  _267
REMARK  112  A    between atoms: _267  and  _268
REMARK  113  A    between atoms: _271  and  _273
REMARK  114  A    between atoms: _273  and  _274
REMARK  115  A    between atoms: _273  and  _276
REMARK  116  A    between atoms: _276  and  _277
REMARK  117  A    between atoms: _277  and  _278
REMARK  118  A    between atoms: _278  and  _279
REMARK  119  A    between atoms: _288  and  _290
REMARK  120  A    between atoms: _290  and  _291
REMARK  121  A    between atoms: _290  and  _293
REMARK  122  A    between atoms: _293  and  _294
REMARK  123  A    between atoms: _299  and  _301
REMARK  124  A    between atoms: _301  and  _302
REMARK  125  A    between atoms: _301  and  _304
REMARK  126  A    between atoms: _304  and  _305
REMARK  127  A    between atoms: _311  and  _313
REMARK  128  A    between atoms: _313  and  _314
REMARK  129  A    between atoms: _313  and  _316
REMARK  130  A    between atoms: _316  and  _317
REMARK  131  A    between atoms: _322  and  _324
REMARK  132  A    between atoms: _324  and  _325
REMARK  133  A    between atoms: _324  and  _327
REMARK  134  A    between atoms: _327  and  _328
REMARK  135  A    between atoms: _333  and  _335
REMARK  136  A    between atoms: _335  and  _336
REMARK  137  A    between atoms: _335  and  _338
REMARK  138  A    between atoms: _338  and  _339
REMARK  139  A    between atoms: _344  and  _346
REMARK  140  A    between atoms: _346  and  _347
REMARK  141  A    between atoms: _346  and  _349
REMARK  142  A    between atoms: _349  and  _350
REMARK  143  A    between atoms: _353  and  _355
REMARK  144  A    between atoms: _355  and  _356
REMARK  145  A    between atoms: _359  and  _361
REMARK  146  A    between atoms: _361  and  _362
REMARK  147  A    between atoms: _365  and  _367
REMARK  148  A    between atoms: _367  and  _368
REMARK  149  A    between atoms: _367  and  _370
REMARK  150  A    between atoms: _370  and  _371
REMARK  151  A    between atoms: _371  and  _372
REMARK  152  A    between atoms: _372  and  _373
REMARK  153  A    between atoms: _382  and  _384
REMARK  154  A    between atoms: _384  and  _385
REMARK  155  A    between atoms: _384  and  _387
REMARK  156  A    between atoms: _387  and  _388
REMARK  157  A    between atoms: _393  and  _395
REMARK  158  A    between atoms: _395  and  _396
REMARK  159  A    between atoms: _395  and  _398
REMARK  160  A    between atoms: _400  and  _402
REMARK  161  A    between atoms: _402  and  _403
REMARK  162  A    between atoms: _402  and  _405
REMARK  163  A    between atoms: _405  and  _406
REMARK  164  A    between atoms: _406  and  _407
REMARK  165  A    between atoms: _409  and  _411
REMARK  166  A    between atoms: _411  and  _412
REMARK  167  A    between atoms: _411  and  _414
REMARK  168  A    between atoms: _414  and  _415
REMARK  169  A    between atoms: _418  and  _420
REMARK  170  A    between atoms: _420  and  _421
REMARK  171  A    between atoms: _420  and  _423
REMARK  172  A    between atoms: _423  and  _424
REMARK  173  A    between atoms: _427  and  _429
REMARK  174  A    between atoms: _429  and  _430
REMARK  175  A    between atoms: _429  and  _432
REMARK  176  A    between atoms: _432  and  _433
REMARK  177  A    between atoms: _433  and  _434
REMARK  178  A    between atoms: _434  and  _435
REMARK  179  A    between atoms: _435  and  _436
REMARK  180  A    between atoms: _440  and  _442
REMARK  181  A    between atoms: _442  and  _443
REMARK  182  A    between atoms: _442  and  _445
REMARK  183  A    between atoms: _448  and  _450
REMARK  184  A    between atoms: _450  and  _451
REMARK  185  A    between atoms: _454  and  _456
REMARK  186  A    between atoms: _456  and  _457
REMARK  187  A    between atoms: _456  and  _459
REMARK  188  A    between atoms: _459  and  _460
REMARK  189  A    between atoms: _463  and  _465
REMARK  190  A    between atoms: _465  and  _466
REMARK  191  A    between atoms: _465  and  _468
REMARK  192  A    between atoms: _468  and  _469
REMARK  193  A    between atoms: _475  and  _477
REMARK  194  A    between atoms: _477  and  _478
REMARK  195  A    between atoms: _477  and  _480
REMARK  196  A    between atoms: _480  and  _481
REMARK  197  A    between atoms: _484  and  _486
REMARK  198  A    between atoms: _486  and  _487
REMARK  199  A    between atoms: _490  and  _492
REMARK  200  A    between atoms: _492  and  _493
REMARK  201  A    between atoms: _492  and  _495
REMARK  202  A    between atoms: _495  and  _496
REMARK  203  A    between atoms: _496  and  _497
REMARK  204  A    between atoms: _497  and  _498
REMARK  205  A    between atoms: _507  and  _509
REMARK  206  A    between atoms: _509  and  _510
REMARK  207  A    between atoms: _509  and  _512
REMARK  208  A    between atoms: _512  and  _513
REMARK  209  A    between atoms: _516  and  _518
REMARK  210  A    between atoms: _518  and  _519
REMARK  211  A    between atoms: _518  and  _521
REMARK  212  A    between atoms: _521  and  _522
REMARK  213  A    between atoms: _522  and  _523
REMARK  214  A    between atoms: _525  and  _527
REMARK  215  A    between atoms: _527  and  _528
REMARK  216  A    between atoms: _527  and  _530
REMARK  217  A    between atoms: _530  and  _531
REMARK  218  A    between atoms: _536  and  _537
REMARK  219  A    between atoms: _539  and  _541
REMARK  220  A    between atoms: _541  and  _542
REMARK  221  A    between atoms: _541  and  _544
REMARK  222  A    between atoms: _544  and  _545
REMARK  223  A    between atoms: _548  and  _550
REMARK  224  A    between atoms: _550  and  _551
REMARK  225  A    between atoms: _550  and  _553
REMARK  226  A    between atoms: _553  and  _554
REMARK  227  A    between atoms: _559  and  _560
REMARK                            x       y       z     vdW  Elec       q    Type
REMARK                         _______ _______ _______ _____ _____    ______ ____
ROOT
ATOM      1  O   HOH     1      30.377  83.190   8.266  0.00  0.00    +0.000 OA
ENDROOT
TORSDOF 0
REMARK  Name = ../refined-set-2016/2wgj/2wgj_pocket.pdb
REMARK  227 active torsions:
REMARK  status: ('A' for Active; 'I' for Inactive)
REMARK    1  A    between atoms: _1  and  _3
REMARK    2  A    between atoms: _3  and  _4
REMARK    3  A    between atoms: _3  and  _6
REMARK    4  A    between atoms: _9  and  _11
REMARK    5  A    between atoms: _11  and  _12
REMARK    6  A    between atoms: _11  and  _14
REMARK    7  A    between atoms: _14  and  _15
REMARK    8  A    between atoms: _18  and  _20
REMARK    9  A    between atoms: _20  and  _21
REMARK   10  A    between atoms: _23  and  _25
REMARK   11  A    between atoms: _25  and  _26
REMARK   12  A    between atoms: _25  and  _28
REMARK   13  A    between atoms: _28  and  _29
REMARK   14  A    between atoms: _29  and  _30
REMARK   15  A    between atoms: _30  and  _31
REMARK   16  A    between atoms: _40  and  _42
REMARK   17  A    between atoms: _42  and  _43
REMARK   18  A    between atoms: _45  and  _47
REMARK   19  A    between atoms: _47  and  _48
REMARK   20  A    between atoms: _50  and  _52
REMARK   21  A    between atoms: _52  and  _53
REMARK   22  A    between atoms: _52  and  _55
REMARK   23  A    between atoms: _57  and  _59
REMARK   24  A    between atoms: _59  and  _60
REMARK   25  A    between atoms: _59  and  _62
REMARK   26  A    between atoms: _65  and  _67
REMARK   27  A    between atoms: _67  and  _68
REMARK   28  A    between atoms: _67  and  _70
REMARK   29  A    between atoms: _70  and  _71
REMARK   30  A    between atoms: _76  and  _77
REMARK   31  A    between atoms: _79  and  _81
REMARK   32  A    between atoms: _81  and  _82
REMARK   33  A    between atoms: _81  and  _84
REMARK   34  A    between atoms: _84  and  _85
REMARK   35  A    between atoms: _90  and  _92
REMARK   36  A    between atoms: _92  and  _93
REMARK   37  A    between atoms: _92  and  _95
REMARK   38  A    between atoms: _95  and  _96
REMARK   39  A    between atoms: _101  and  _103
REMARK   40  A    between atoms: _103  and  _104
REMARK   41  A    between atoms: _103  and  _106
REMARK   42  A    between atoms: _108  and  _110
REMARK   43  A    between atoms: _110  and  _111
REMARK   44  A    between atoms: _114  and  _116
REMARK   45  A    between atoms: _116  and  _117
REMARK   46  A    between atoms: _116  and  _119
REMARK   47  A    between atoms: _122  and  _124
REMARK   48  A    between atoms: _124  and  _125
REMARK   49  A    between atoms: _124  and  _127
REMARK   50  A    between atoms: _127  and  _128
REMARK   51  A    between atoms: _128  and  _129
REMARK   52  A    between atoms: _129  and  _130
REMARK   53  A    between atoms: _130  and  _131
REMARK   54  A    between atoms: _135  and  _137
REMARK   55  A    between atoms: _137  and  _138
REMARK   56  A    between atoms: _137  and  _140
REMARK   57  A    between atoms: _140  and  _141
REMARK   58  A    between atoms: _143  and  _145
REMARK   59  A    between atoms: _145  and  _146
REMARK   60  A    between atoms: _145  and  _148
REMARK   61  A    between atoms: _148  and  _149
REMARK   62  A    between atoms: _149  and  _150
REMARK   63  A    between atoms: _152  and  _154
REMARK   64  A    between atoms: _154  and  _155
REMARK   65  A    between atoms: _154  and  _157
REMARK   66  A    between atoms: _157  and  _158
REMARK   67  A    between atoms: _161  and  _163
REMARK   68  A    between atoms: _163  and  _164
REMARK   69  A    between atoms: _163  and  _166
REMARK   70  A    between atoms: _166  and  _167
REMARK   71  A    between atoms: _169  and  _171
REMARK   72  A    between atoms: _171  and  _172
REMARK   73  A    between atoms: _171  and  _174
REMARK   74  A    between atoms: _177  and  _179
REMARK   75  A    between atoms: _179  and  _180
REMARK   76  A    between atoms: _179  and  _182
REMARK   77  A    between atoms: _185  and  _187
REMARK   78  A    between atoms: _187  and  _188
REMARK   79  A    between atoms: _187  and  _190
REMARK   80  A    between atoms: _190  and  _191
REMARK   81  A    between atoms: _195  and  _196
REMARK   82  A    between atoms: _201  and  _203
REMARK   83  A    between atoms: _203  and  _204
REMARK   84  A    between atoms: _203  and  _206
REMARK   85  A    between atoms: _206  and  _207
REMARK   86  A    between atoms: _212  and  _213
REMARK   87  A    between atoms: _215  and  _217
REMARK   88  A    between atoms: _217  and  _218
REMARK   89  A    between atoms: _217  and  _220
REMARK   90  A    between atoms: _220  and  _221
REMARK   91  A    between atoms: _221  and  _222
REMARK   92  A    between atoms: _224  and  _226
REMARK   93  A    between atoms: _226  and  _227
REMARK   94  A    between atoms: _226  and  _229
REMARK   95  A    between atoms: _229  and  _230
REMARK   96  A    between atoms: _230  and  _231
REMARK   97  A    between atoms: _231  and  _232
REMARK   98  A    between atoms: _232  and  _233
REMARK   99  A    between atoms: _237  and  _239
REMARK  100  A    between atoms: _239  and  _240
REMARK  101  A    between atoms: _239  and  _242
REMARK  102  A    between atoms: _242  and  _243
REMARK  103  A    between atoms: _248  and  _250
REMARK  104  A    between atoms: _250  and  _251
REMARK  105  A    between atoms: _253  and  _255
REMARK  106  A    between atoms: _255  and  _256
REMARK  107  A    between atoms: _255  and  _258
REMARK  108  A    between atoms: _258  and  _259
REMARK  109  A    between atoms: _262  and  _264
REMARK  110  A    between atoms: _264  and  _265
REMARK  111  A    between atoms: _264  and  _267
REMARK  112  A    between atoms: _267  and  _268
REMARK  113  A    between atoms: _271  and  _273
REMARK  114  A    between atoms: _273  and  _274
REMARK  115  A    between atoms: _273  and  _276
REMARK  116  A    between atoms: _276  and  _277
REMARK  117  A    between atoms: _277  and  _278
REMARK  118  A    between atoms: _278  and  _279
REMARK  119  A    between atoms: _288  and  _290
REMARK  120  A    between atoms: _290  and  _291
REMARK  121  A    between atoms: _290  and  _293
REMARK  122  A    between atoms: _293  and  _294
REMARK  123  A    between atoms: _299  and  _301
REMARK  124  A    between atoms: _301  and  _302
REMARK  125  A    between atoms: _301  and  _304
REMARK  126  A    between atoms: _304  and  _305
REMARK  127  A    between atoms: _311  and  _313
REMARK  128  A    between atoms: _313  and  _314
REMARK  129  A    between atoms: _313  and  _316
REMARK  130  A    between atoms: _316  and  _317
REMARK  131  A    between atoms: _322  and  _324
REMARK  132  A    between atoms: _324  and  _325
REMARK  133  A    between atoms: _324  and  _327
REMARK  134  A    between atoms: _327  and  _328
REMARK  135  A    between atoms: _333  and  _335
REMARK  136  A    between atoms: _335  and  _336
REMARK  137  A    between atoms: _335  and  _338
REMARK  138  A    between atoms: _338  and  _339
REMARK  139  A    between atoms: _344  and  _346
REMARK  140  A    between atoms: _346  and  _347
REMARK  141  A    between atoms: _346  and  _349
REMARK  142  A    between atoms: _349  and  _350
REMARK  143  A    between atoms: _353  and  _355
REMARK  144  A    between atoms: _355  and  _356
REMARK  145  A    between atoms: _359  and  _361
REMARK  146  A    between atoms: _361  and  _362
REMARK  147  A    between atoms: _365  and  _367
REMARK  148  A    between atoms: _367  and  _368
REMARK  149  A    between atoms: _367  and  _370
REMARK  150  A    between atoms: _370  and  _371
REMARK  151  A    between atoms: _371  and  _372
REMARK  152  A    between atoms: _372  and  _373
REMARK  153  A    between atoms: _382  and  _384
REMARK  154  A    between atoms: _384  and  _385
REMARK  155  A    between atoms: _384  and  _387
REMARK  156  A    between atoms: _387  and  _388
REMARK  157  A    between atoms: _393  and  _395
REMARK  158  A    between atoms: _395  and  _396
REMARK  159  A    between atoms: _395  and  _398
REMARK  160  A    between atoms: _400  and  _402
REMARK  161  A    between atoms: _402  and  _403
REMARK  162  A    between atoms: _402  and  _405
REMARK  163  A    between atoms: _405  and  _406
REMARK  164  A    between atoms: _406  and  _407
REMARK  165  A    between atoms: _409  and  _411
REMARK  166  A    between atoms: _411  and  _412
REMARK  167  A    between atoms: _411  and  _414
REMARK  168  A    between atoms: _414  and  _415
REMARK  169  A    between atoms: _418  and  _420
REMARK  170  A    between atoms: _420  and  _421
REMARK  171  A    between atoms: _420  and  _423
REMARK  172  A    between atoms: _423  and  _424
REMARK  173  A    between atoms: _427  and  _429
REMARK  174  A    between atoms: _429  and  _430
REMARK  175  A    between atoms: _429  and  _432
REMARK  176  A    between atoms: _432  and  _433
REMARK  177  A    between atoms: _433  and  _434
REMARK  178  A    between atoms: _434  and  _435
REMARK  179  A    between atoms: _435  and  _436
REMARK  180  A    between atoms: _440  and  _442
REMARK  181  A    between atoms: _442  and  _443
REMARK  182  A    between atoms: _442  and  _445
REMARK  183  A    between atoms: _448  and  _450
REMARK  184  A    between atoms: _450  and  _451
REMARK  185  A    between atoms: _454  and  _456
REMARK  186  A    between atoms: _456  and  _457
REMARK  187  A    between atoms: _456  and  _459
REMARK  188  A    between atoms: _459  and  _460
REMARK  189  A    between atoms: _463  and  _465
REMARK  190  A    between atoms: _465  and  _466
REMARK  191  A    between atoms: _465  and  _468
REMARK  192  A    between atoms: _468  and  _469
REMARK  193  A    between atoms: _475  and  _477
REMARK  194  A    between atoms: _477  and  _478
REMARK  195  A    between atoms: _477  and  _480
REMARK  196  A    between atoms: _480  and  _481
REMARK  197  A    between atoms: _484  and  _486
REMARK  198  A    between atoms: _486  and  _487
REMARK  199  A    between atoms: _490  and  _492
REMARK  200  A    between atoms: _492  and  _493
REMARK  201  A    between atoms: _492  and  _495
REMARK  202  A    between atoms: _495  and  _496
REMARK  203  A    between atoms: _496  and  _497
REMARK  204  A    between atoms: _497  and  _498
REMARK  205  A    between atoms: _507  and  _509
REMARK  206  A    between atoms: _509  and  _510
REMARK  207  A    between atoms: _509  and  _512
REMARK  208  A    between atoms: _512  and  _513
REMARK  209  A    between atoms: _516  and  _518
REMARK  210  A    between atoms: _518  and  _519
REMARK  211  A    between atoms: _518  and  _521
REMARK  212  A    between atoms: _521  and  _522
REMARK  213  A    between atoms: _522  and  _523
REMARK  214  A    between atoms: _525  and  _527
REMARK  215  A    between atoms: _527  and  _528
REMARK  216  A    between atoms: _527  and  _530
REMARK  217  A    between atoms: _530  and  _531
REMARK  218  A    between atoms: _536  and  _537
REMARK  219  A    between atoms: _539  and  _541
REMARK  220  A    between atoms: _541  and  _542
REMARK  221  A    between atoms: _541  and  _544
REMARK  222  A    between atoms: _544  and  _545
REMARK  223  A    between atoms: _548  and  _550
REMARK  224  A    between atoms: _550  and  _551
REMARK  225  A    between atoms: _550  and  _553
REMARK  226  A    between atoms: _553  and  _554
REMARK  227  A    between atoms: _559  and  _560
REMARK                            x       y       z     vdW  Elec       q    Type
REMARK                         _______ _______ _______ _____ _____    ______ ____
ROOT
ATOM      1  O   HOH     1      19.217  81.168   2.187  0.00  0.00    +0.000 OA
ENDROOT
TORSDOF 0
REMARK  Name = ../refined-set-2016/2wgj/2wgj_pocket.pdb
REMARK  227 active torsions:
REMARK  status: ('A' for Active; 'I' for Inactive)
REMARK    1  A    between atoms: _1  and  _3
REMARK    2  A    between atoms: _3  and  _4
REMARK    3  A    between atoms: _3  and  _6
REMARK    4  A    between atoms: _9  and  _11
REMARK    5  A    between atoms: _11  and  _12
REMARK    6  A    between atoms: _11  and  _14
REMARK    7  A    between atoms: _14  and  _15
REMARK    8  A    between atoms: _18  and  _20
REMARK    9  A    between atoms: _20  and  _21
REMARK   10  A    between atoms: _23  and  _25
REMARK   11  A    between atoms: _25  and  _26
REMARK   12  A    between atoms: _25  and  _28
REMARK   13  A    between atoms: _28  and  _29
REMARK   14  A    between atoms: _29  and  _30
REMARK   15  A    between atoms: _30  and  _31
REMARK   16  A    between atoms: _40  and  _42
REMARK   17  A    between atoms: _42  and  _43
REMARK   18  A    between atoms: _45  and  _47
REMARK   19  A    between atoms: _47  and  _48
REMARK   20  A    between atoms: _50  and  _52
REMARK   21  A    between atoms: _52  and  _53
REMARK   22  A    between atoms: _52  and  _55
REMARK   23  A    between atoms: _57  and  _59
REMARK   24  A    between atoms: _59  and  _60
REMARK   25  A    between atoms: _59  and  _62
REMARK   26  A    between atoms: _65  and  _67
REMARK   27  A    between atoms: _67  and  _68
REMARK   28  A    between atoms: _67  and  _70
REMARK   29  A    between atoms: _70  and  _71
REMARK   30  A    between atoms: _76  and  _77
REMARK   31  A    between atoms: _79  and  _81
REMARK   32  A    between atoms: _81  and  _82
REMARK   33  A    between atoms: _81  and  _84
REMARK   34  A    between atoms: _84  and  _85
REMARK   35  A    between atoms: _90  and  _92
REMARK   36  A    between atoms: _92  and  _93
REMARK   37  A    between atoms: _92  and  _95
REMARK   38  A    between atoms: _95  and  _96
REMARK   39  A    between atoms: _101  and  _103
REMARK   40  A    between atoms: _103  and  _104
REMARK   41  A    between atoms: _103  and  _106
REMARK   42  A    between atoms: _108  and  _110
REMARK   43  A    between atoms: _110  and  _111
REMARK   44  A    between atoms: _114  and  _116
REMARK   45  A    between atoms: _116  and  _117
REMARK   46  A    between atoms: _116  and  _119
REMARK   47  A    between atoms: _122  and  _124
REMARK   48  A    between atoms: _124  and  _125
REMARK   49  A    between atoms: _124  and  _127
REMARK   50  A    between atoms: _127  and  _128
REMARK   51  A    between atoms: _128  and  _129
REMARK   52  A    between atoms: _129  and  _130
REMARK   53  A    between atoms: _130  and  _131
REMARK   54  A    between atoms: _135  and  _137
REMARK   55  A    between atoms: _137  and  _138
REMARK   56  A    between atoms: _137  and  _140
REMARK   57  A    between atoms: _140  and  _141
REMARK   58  A    between atoms: _143  and  _145
REMARK   59  A    between atoms: _145  and  _146
REMARK   60  A    between atoms: _145  and  _148
REMARK   61  A    between atoms: _148  and  _149
REMARK   62  A    between atoms: _149  and  _150
REMARK   63  A    between atoms: _152  and  _154
REMARK   64  A    between atoms: _154  and  _155
REMARK   65  A    between atoms: _154  and  _157
REMARK   66  A    between atoms: _157  and  _158
REMARK   67  A    between atoms: _161  and  _163
REMARK   68  A    between atoms: _163  and  _164
REMARK   69  A    between atoms: _163  and  _166
REMARK   70  A    between atoms: _166  and  _167
REMARK   71  A    between atoms: _169  and  _171
REMARK   72  A    between atoms: _171  and  _172
REMARK   73  A    between atoms: _171  and  _174
REMARK   74  A    between atoms: _177  and  _179
REMARK   75  A    between atoms: _179  and  _180
REMARK   76  A    between atoms: _179  and  _182
REMARK   77  A    between atoms: _185  and  _187
REMARK   78  A    between atoms: _187  and  _188
REMARK   79  A    between atoms: _187  and  _190
REMARK   80  A    between atoms: _190  and  _191
REMARK   81  A    between atoms: _195  and  _196
REMARK   82  A    between atoms: _201  and  _203
REMARK   83  A    between atoms: _203  and  _204
REMARK   84  A    between atoms: _203  and  _206
REMARK   85  A    between atoms: _206  and  _207
REMARK   86  A    between atoms: _212  and  _213
REMARK   87  A    between atoms: _215  and  _217
REMARK   88  A    between atoms: _217  and  _218
REMARK   89  A    between atoms: _217  and  _220
REMARK   90  A    between atoms: _220  and  _221
REMARK   91  A    between atoms: _221  and  _222
REMARK   92  A    between atoms: _224  and  _226
REMARK   93  A    between atoms: _226  and  _227
REMARK   94  A    between atoms: _226  and  _229
REMARK   95  A    between atoms: _229  and  _230
REMARK   96  A    between atoms: _230  and  _231
REMARK   97  A    between atoms: _231  and  _232
REMARK   98  A    between atoms: _232  and  _233
REMARK   99  A    between atoms: _237  and  _239
REMARK  100  A    between atoms: _239  and  _240
REMARK  101  A    between atoms: _239  and  _242
REMARK  102  A    between atoms: _242  and  _243
REMARK  103  A    between atoms: _248  and  _250
REMARK  104  A    between atoms: _250  and  _251
REMARK  105  A    between atoms: _253  and  _255
REMARK  106  A    between atoms: _255  and  _256
REMARK  107  A    between atoms: _255  and  _258
REMARK  108  A    between atoms: _258  and  _259
REMARK  109  A    between atoms: _262  and  _264
REMARK  110  A    between atoms: _264  and  _265
REMARK  111  A    between atoms: _264  and  _267
REMARK  112  A    between atoms: _267  and  _268
REMARK  113  A    between atoms: _271  and  _273
REMARK  114  A    between atoms: _273  and  _274
REMARK  115  A    between atoms: _273  and  _276
REMARK  116  A    between atoms: _276  and  _277
REMARK  117  A    between atoms: _277  and  _278
REMARK  118  A    between atoms: _278  and  _279
REMARK  119  A    between atoms: _288  and  _290
REMARK  120  A    between atoms: _290  and  _291
REMARK  121  A    between atoms: _290  and  _293
REMARK  122  A    between atoms: _293  and  _294
REMARK  123  A    between atoms: _299  and  _301
REMARK  124  A    between atoms: _301  and  _302
REMARK  125  A    between atoms: _301  and  _304
REMARK  126  A    between atoms: _304  and  _305
REMARK  127  A    between atoms: _311  and  _313
REMARK  128  A    between atoms: _313  and  _314
REMARK  129  A    between atoms: _313  and  _316
REMARK  130  A    between atoms: _316  and  _317
REMARK  131  A    between atoms: _322  and  _324
REMARK  132  A    between atoms: _324  and  _325
REMARK  133  A    between atoms: _324  and  _327
REMARK  134  A    between atoms: _327  and  _328
REMARK  135  A    between atoms: _333  and  _335
REMARK  136  A    between atoms: _335  and  _336
REMARK  137  A    between atoms: _335  and  _338
REMARK  138  A    between atoms: _338  and  _339
REMARK  139  A    between atoms: _344  and  _346
REMARK  140  A    between atoms: _346  and  _347
REMARK  141  A    between atoms: _346  and  _349
REMARK  142  A    between atoms: _349  and  _350
REMARK  143  A    between atoms: _353  and  _355
REMARK  144  A    between atoms: _355  and  _356
REMARK  145  A    between atoms: _359  and  _361
REMARK  146  A    between atoms: _361  and  _362
REMARK  147  A    between atoms: _365  and  _367
REMARK  148  A    between atoms: _367  and  _368
REMARK  149  A    between atoms: _367  and  _370
REMARK  150  A    between atoms: _370  and  _371
REMARK  151  A    between atoms: _371  and  _372
REMARK  152  A    between atoms: _372  and  _373
REMARK  153  A    between atoms: _382  and  _384
REMARK  154  A    between atoms: _384  and  _385
REMARK  155  A    between atoms: _384  and  _387
REMARK  156  A    between atoms: _387  and  _388
REMARK  157  A    between atoms: _393  and  _395
REMARK  158  A    between atoms: _395  and  _396
REMARK  159  A    between atoms: _395  and  _398
REMARK  160  A    between atoms: _400  and  _402
REMARK  161  A    between atoms: _402  and  _403
REMARK  162  A    between atoms: _402  and  _405
REMARK  163  A    between atoms: _405  and  _406
REMARK  164  A    between atoms: _406  and  _407
REMARK  165  A    between atoms: _409  and  _411
REMARK  166  A    between atoms: _411  and  _412
REMARK  167  A    between atoms: _411  and  _414
REMARK  168  A    between atoms: _414  and  _415
REMARK  169  A    between atoms: _418  and  _420
REMARK  170  A    between atoms: _420  and  _421
REMARK  171  A    between atoms: _420  and  _423
REMARK  172  A    between atoms: _423  and  _424
REMARK  173  A    between atoms: _427  and  _429
REMARK  174  A    between atoms: _429  and  _430
REMARK  175  A    between atoms: _429  and  _432
REMARK  176  A    between atoms: _432  and  _433
REMARK  177  A    between atoms: _433  and  _434
REMARK  178  A    between atoms: _434  and  _435
REMARK  179  A    between atoms: _435  and  _436
REMARK  180  A    between atoms: _440  and  _442
REMARK  181  A    between atoms: _442  and  _443
REMARK  182  A    between atoms: _442  and  _445
REMARK  183  A    between atoms: _448  and  _450
REMARK  184  A    between atoms: _450  and  _451
REMARK  185  A    between atoms: _454  and  _456
REMARK  186  A    between atoms: _456  and  _457
REMARK  187  A    between atoms: _456  and  _459
REMARK  188  A    between atoms: _459  and  _460
REMARK  189  A    between atoms: _463  and  _465
REMARK  190  A    between atoms: _465  and  _466
REMARK  191  A    between atoms: _465  and  _468
REMARK  192  A    between atoms: _468  and  _469
REMARK  193  A    between atoms: _475  and  _477
REMARK  194  A    between atoms: _477  and  _478
REMARK  195  A    between atoms: _477  and  _480
REMARK  196  A    between atoms: _480  and  _481
REMARK  197  A    between atoms: _484  and  _486
REMARK  198  A    between atoms: _486  and  _487
REMARK  199  A    between atoms: _490  and  _492
REMARK  200  A    between atoms: _492  and  _493
REMARK  201  A    between atoms: _492  and  _495
REMARK  202  A    between atoms: _495  and  _496
REMARK  203  A    between atoms: _496  and  _497
REMARK  204  A    between atoms: _497  and  _498
REMARK  205  A    between atoms: _507  and  _509
REMARK  206  A    between atoms: _509  and  _510
REMARK  207  A    between atoms: _509  and  _512
REMARK  208  A    between atoms: _512  and  _513
REMARK  209  A    between atoms: _516  and  _518
REMARK  210  A    between atoms: _518  and  _519
REMARK  211  A    between atoms: _518  and  _521
REMARK  212  A    between atoms: _521  and  _522
REMARK  213  A    between atoms: _522  and  _523
REMARK  214  A    between atoms: _525  and  _527
REMARK  215  A    between atoms: _527  and  _528
REMARK  216  A    between atoms: _527  and  _530
REMARK  217  A    between atoms: _530  and  _531
REMARK  218  A    between atoms: _536  and  _537
REMARK  219  A    between atoms: _539  and  _541
REMARK  220  A    between atoms: _541  and  _542
REMARK  221  A    between atoms: _541  and  _544
REMARK  222  A    between atoms: _544  and  _545
REMARK  223  A    between atoms: _548  and  _550
REMARK  224  A    between atoms: _550  and  _551
REMARK  225  A    between atoms: _550  and  _553
REMARK  226  A    between atoms: _553  and  _554
REMARK  227  A    between atoms: _559  and  _560
REMARK                            x       y       z     vdW  Elec       q    Type
REMARK                         _______ _______ _______ _____ _____    ______ ____
ROOT
ATOM      1  O   HOH     1      17.719  76.396   0.551  0.00  0.00    +0.000 OA
ENDROOT
TORSDOF 0
REMARK  Name = ../refined-set-2016/2wgj/2wgj_pocket.pdb
REMARK  227 active torsions:
REMARK  status: ('A' for Active; 'I' for Inactive)
REMARK    1  A    between atoms: _1  and  _3
REMARK    2  A    between atoms: _3  and  _4
REMARK    3  A    between atoms: _3  and  _6
REMARK    4  A    between atoms: _9  and  _11
REMARK    5  A    between atoms: _11  and  _12
REMARK    6  A    between atoms: _11  and  _14
REMARK    7  A    between atoms: _14  and  _15
REMARK    8  A    between atoms: _18  and  _20
REMARK    9  A    between atoms: _20  and  _21
REMARK   10  A    between atoms: _23  and  _25
REMARK   11  A    between atoms: _25  and  _26
REMARK   12  A    between atoms: _25  and  _28
REMARK   13  A    between atoms: _28  and  _29
REMARK   14  A    between atoms: _29  and  _30
REMARK   15  A    between atoms: _30  and  _31
REMARK   16  A    between atoms: _40  and  _42
REMARK   17  A    between atoms: _42  and  _43
REMARK   18  A    between atoms: _45  and  _47
REMARK   19  A    between atoms: _47  and  _48
REMARK   20  A    between atoms: _50  and  _52
REMARK   21  A    between atoms: _52  and  _53
REMARK   22  A    between atoms: _52  and  _55
REMARK   23  A    between atoms: _57  and  _59
REMARK   24  A    between atoms: _59  and  _60
REMARK   25  A    between atoms: _59  and  _62
REMARK   26  A    between atoms: _65  and  _67
REMARK   27  A    between atoms: _67  and  _68
REMARK   28  A    between atoms: _67  and  _70
REMARK   29  A    between atoms: _70  and  _71
REMARK   30  A    between atoms: _76  and  _77
REMARK   31  A    between atoms: _79  and  _81
REMARK   32  A    between atoms: _81  and  _82
REMARK   33  A    between atoms: _81  and  _84
REMARK   34  A    between atoms: _84  and  _85
REMARK   35  A    between atoms: _90  and  _92
REMARK   36  A    between atoms: _92  and  _93
REMARK   37  A    between atoms: _92  and  _95
REMARK   38  A    between atoms: _95  and  _96
REMARK   39  A    between atoms: _101  and  _103
REMARK   40  A    between atoms: _103  and  _104
REMARK   41  A    between atoms: _103  and  _106
REMARK   42  A    between atoms: _108  and  _110
REMARK   43  A    between atoms: _110  and  _111
REMARK   44  A    between atoms: _114  and  _116
REMARK   45  A    between atoms: _116  and  _117
REMARK   46  A    between atoms: _116  and  _119
REMARK   47  A    between atoms: _122  and  _124
REMARK   48  A    between atoms: _124  and  _125
REMARK   49  A    between atoms: _124  and  _127
REMARK   50  A    between atoms: _127  and  _128
REMARK   51  A    between atoms: _128  and  _129
REMARK   52  A    between atoms: _129  and  _130
REMARK   53  A    between atoms: _130  and  _131
REMARK   54  A    between atoms: _135  and  _137
REMARK   55  A    between atoms: _137  and  _138
REMARK   56  A    between atoms: _137  and  _140
REMARK   57  A    between atoms: _140  and  _141
REMARK   58  A    between atoms: _143  and  _145
REMARK   59  A    between atoms: _145  and  _146
REMARK   60  A    between atoms: _145  and  _148
REMARK   61  A    between atoms: _148  and  _149
REMARK   62  A    between atoms: _149  and  _150
REMARK   63  A    between atoms: _152  and  _154
REMARK   64  A    between atoms: _154  and  _155
REMARK   65  A    between atoms: _154  and  _157
REMARK   66  A    between atoms: _157  and  _158
REMARK   67  A    between atoms: _161  and  _163
REMARK   68  A    between atoms: _163  and  _164
REMARK   69  A    between atoms: _163  and  _166
REMARK   70  A    between atoms: _166  and  _167
REMARK   71  A    between atoms: _169  and  _171
REMARK   72  A    between atoms: _171  and  _172
REMARK   73  A    between atoms: _171  and  _174
REMARK   74  A    between atoms: _177  and  _179
REMARK   75  A    between atoms: _179  and  _180
REMARK   76  A    between atoms: _179  and  _182
REMARK   77  A    between atoms: _185  and  _187
REMARK   78  A    between atoms: _187  and  _188
REMARK   79  A    between atoms: _187  and  _190
REMARK   80  A    between atoms: _190  and  _191
REMARK   81  A    between atoms: _195  and  _196
REMARK   82  A    between atoms: _201  and  _203
REMARK   83  A    between atoms: _203  and  _204
REMARK   84  A    between atoms: _203  and  _206
REMARK   85  A    between atoms: _206  and  _207
REMARK   86  A    between atoms: _212  and  _213
REMARK   87  A    between atoms: _215  and  _217
REMARK   88  A    between atoms: _217  and  _218
REMARK   89  A    between atoms: _217  and  _220
REMARK   90  A    between atoms: _220  and  _221
REMARK   91  A    between atoms: _221  and  _222
REMARK   92  A    between atoms: _224  and  _226
REMARK   93  A    between atoms: _226  and  _227
REMARK   94  A    between atoms: _226  and  _229
REMARK   95  A    between atoms: _229  and  _230
REMARK   96  A    between atoms: _230  and  _231
REMARK   97  A    between atoms: _231  and  _232
REMARK   98  A    between atoms: _232  and  _233
REMARK   99  A    between atoms: _237  and  _239
REMARK  100  A    between atoms: _239  and  _240
REMARK  101  A    between atoms: _239  and  _242
REMARK  102  A    between atoms: _242  and  _243
REMARK  103  A    between atoms: _248  and  _250
REMARK  104  A    between atoms: _250  and  _251
REMARK  105  A    between atoms: _253  and  _255
REMARK  106  A    between atoms: _255  and  _256
REMARK  107  A    between atoms: _255  and  _258
REMARK  108  A    between atoms: _258  and  _259
REMARK  109  A    between atoms: _262  and  _264
REMARK  110  A    between atoms: _264  and  _265
REMARK  111  A    between atoms: _264  and  _267
REMARK  112  A    between atoms: _267  and  _268
REMARK  113  A    between atoms: _271  and  _273
REMARK  114  A    between atoms: _273  and  _274
REMARK  115  A    between atoms: _273  and  _276
REMARK  116  A    between atoms: _276  and  _277
REMARK  117  A    between atoms: _277  and  _278
REMARK  118  A    between atoms: _278  and  _279
REMARK  119  A    between atoms: _288  and  _290
REMARK  120  A    between atoms: _290  and  _291
REMARK  121  A    between atoms: _290  and  _293
REMARK  122  A    between atoms: _293  and  _294
REMARK  123  A    between atoms: _299  and  _301
REMARK  124  A    between atoms: _301  and  _302
REMARK  125  A    between atoms: _301  and  _304
REMARK  126  A    between atoms: _304  and  _305
REMARK  127  A    between atoms: _311  and  _313
REMARK  128  A    between atoms: _313  and  _314
REMARK  129  A    between atoms: _313  and  _316
REMARK  130  A    between atoms: _316  and  _317
REMARK  131  A    between atoms: _322  and  _324
REMARK  132  A    between atoms: _324  and  _325
REMARK  133  A    between atoms: _324  and  _327
REMARK  134  A    between atoms: _327  and  _328
REMARK  135  A    between atoms: _333  and  _335
REMARK  136  A    between atoms: _335  and  _336
REMARK  137  A    between atoms: _335  and  _338
REMARK  138  A    between atoms: _338  and  _339
REMARK  139  A    between atoms: _344  and  _346
REMARK  140  A    between atoms: _346  and  _347
REMARK  141  A    between atoms: _346  and  _349
REMARK  142  A    between atoms: _349  and  _350
REMARK  143  A    between atoms: _353  and  _355
REMARK  144  A    between atoms: _355  and  _356
REMARK  145  A    between atoms: _359  and  _361
REMARK  146  A    between atoms: _361  and  _362
REMARK  147  A    between atoms: _365  and  _367
REMARK  148  A    between atoms: _367  and  _368
REMARK  149  A    between atoms: _367  and  _370
REMARK  150  A    between atoms: _370  and  _371
REMARK  151  A    between atoms: _371  and  _372
REMARK  152  A    between atoms: _372  and  _373
REMARK  153  A    between atoms: _382  and  _384
REMARK  154  A    between atoms: _384  and  _385
REMARK  155  A    between atoms: _384  and  _387
REMARK  156  A    between atoms: _387  and  _388
REMARK  157  A    between atoms: _393  and  _395
REMARK  158  A    between atoms: _395  and  _396
REMARK  159  A    between atoms: _395  and  _398
REMARK  160  A    between atoms: _400  and  _402
REMARK  161  A    between atoms: _402  and  _403
REMARK  162  A    between atoms: _402  and  _405
REMARK  163  A    between atoms: _405  and  _406
REMARK  164  A    between atoms: _406  and  _407
REMARK  165  A    between atoms: _409  and  _411
REMARK  166  A    between atoms: _411  and  _412
REMARK  167  A    between atoms: _411  and  _414
REMARK  168  A    between atoms: _414  and  _415
REMARK  169  A    between atoms: _418  and  _420
REMARK  170  A    between atoms: _420  and  _421
REMARK  171  A    between atoms: _420  and  _423
REMARK  172  A    between atoms: _423  and  _424
REMARK  173  A    between atoms: _427  and  _429
REMARK  174  A    between atoms: _429  and  _430
REMARK  175  A    between atoms: _429  and  _432
REMARK  176  A    between atoms: _432  and  _433
REMARK  177  A    between atoms: _433  and  _434
REMARK  178  A    between atoms: _434  and  _435
REMARK  179  A    between atoms: _435  and  _436
REMARK  180  A    between atoms: _440  and  _442
REMARK  181  A    between atoms: _442  and  _443
REMARK  182  A    between atoms: _442  and  _445
REMARK  183  A    between atoms: _448  and  _450
REMARK  184  A    between atoms: _450  and  _451
REMARK  185  A    between atoms: _454  and  _456
REMARK  186  A    between atoms: _456  and  _457
REMARK  187  A    between atoms: _456  and  _459
REMARK  188  A    between atoms: _459  and  _460
REMARK  189  A    between atoms: _463  and  _465
REMARK  190  A    between atoms: _465  and  _466
REMARK  191  A    between atoms: _465  and  _468
REMARK  192  A    between atoms: _468  and  _469
REMARK  193  A    between atoms: _475  and  _477
REMARK  194  A    between atoms: _477  and  _478
REMARK  195  A    between atoms: _477  and  _480
REMARK  196  A    between atoms: _480  and  _481
REMARK  197  A    between atoms: _484  and  _486
REMARK  198  A    between atoms: _486  and  _487
REMARK  199  A    between atoms: _490  and  _492
REMARK  200  A    between atoms: _492  and  _493
REMARK  201  A    between atoms: _492  and  _495
REMARK  202  A    between atoms: _495  and  _496
REMARK  203  A    between atoms: _496  and  _497
REMARK  204  A    between atoms: _497  and  _498
REMARK  205  A    between atoms: _507  and  _509
REMARK  206  A    between atoms: _509  and  _510
REMARK  207  A    between atoms: _509  and  _512
REMARK  208  A    between atoms: _512  and  _513
REMARK  209  A    between atoms: _516  and  _518
REMARK  210  A    between atoms: _518  and  _519
REMARK  211  A    between atoms: _518  and  _521
REMARK  212  A    between atoms: _521  and  _522
REMARK  213  A    between atoms: _522  and  _523
REMARK  214  A    between atoms: _525  and  _527
REMARK  215  A    between atoms: _527  and  _528
REMARK  216  A    between atoms: _527  and  _530
REMARK  217  A    between atoms: _530  and  _531
REMARK  218  A    between atoms: _536  and  _537
REMARK  219  A    between atoms: _539  and  _541
REMARK  220  A    between atoms: _541  and  _542
REMARK  221  A    between atoms: _541  and  _544
REMARK  222  A    between atoms: _544  and  _545
REMARK  223  A    between atoms: _548  and  _550
REMARK  224  A    between atoms: _550  and  _551
REMARK  225  A    between atoms: _550  and  _553
REMARK  226  A    between atoms: _553  and  _554
REMARK  227  A    between atoms: _559  and  _560
REMARK                            x       y       z     vdW  Elec       q    Type
REMARK                         _______ _______ _______ _____ _____    ______ ____
ROOT
ATOM      1  O   HOH     1      17.474  78.456  -2.255  0.00  0.00    +0.000 OA
ENDROOT
TORSDOF 0
REMARK  Name = ../refined-set-2016/2wgj/2wgj_pocket.pdb
REMARK  227 active torsions:
REMARK  status: ('A' for Active; 'I' for Inactive)
REMARK    1  A    between atoms: _1  and  _3
REMARK    2  A    between atoms: _3  and  _4
REMARK    3  A    between atoms: _3  and  _6
REMARK    4  A    between atoms: _9  and  _11
REMARK    5  A    between atoms: _11  and  _12
REMARK    6  A    between atoms: _11  and  _14
REMARK    7  A    between atoms: _14  and  _15
REMARK    8  A    between atoms: _18  and  _20
REMARK    9  A    between atoms: _20  and  _21
REMARK   10  A    between atoms: _23  and  _25
REMARK   11  A    between atoms: _25  and  _26
REMARK   12  A    between atoms: _25  and  _28
REMARK   13  A    between atoms: _28  and  _29
REMARK   14  A    between atoms: _29  and  _30
REMARK   15  A    between atoms: _30  and  _31
REMARK   16  A    between atoms: _40  and  _42
REMARK   17  A    between atoms: _42  and  _43
REMARK   18  A    between atoms: _45  and  _47
REMARK   19  A    between atoms: _47  and  _48
REMARK   20  A    between atoms: _50  and  _52
REMARK   21  A    between atoms: _52  and  _53
REMARK   22  A    between atoms: _52  and  _55
REMARK   23  A    between atoms: _57  and  _59
REMARK   24  A    between atoms: _59  and  _60
REMARK   25  A    between atoms: _59  and  _62
REMARK   26  A    between atoms: _65  and  _67
REMARK   27  A    between atoms: _67  and  _68
REMARK   28  A    between atoms: _67  and  _70
REMARK   29  A    between atoms: _70  and  _71
REMARK   30  A    between atoms: _76  and  _77
REMARK   31  A    between atoms: _79  and  _81
REMARK   32  A    between atoms: _81  and  _82
REMARK   33  A    between atoms: _81  and  _84
REMARK   34  A    between atoms: _84  and  _85
REMARK   35  A    between atoms: _90  and  _92
REMARK   36  A    between atoms: _92  and  _93
REMARK   37  A    between atoms: _92  and  _95
REMARK   38  A    between atoms: _95  and  _96
REMARK   39  A    between atoms: _101  and  _103
REMARK   40  A    between atoms: _103  and  _104
REMARK   41  A    between atoms: _103  and  _106
REMARK   42  A    between atoms: _108  and  _110
REMARK   43  A    between atoms: _110  and  _111
REMARK   44  A    between atoms: _114  and  _116
REMARK   45  A    between atoms: _116  and  _117
REMARK   46  A    between atoms: _116  and  _119
REMARK   47  A    between atoms: _122  and  _124
REMARK   48  A    between atoms: _124  and  _125
REMARK   49  A    between atoms: _124  and  _127
REMARK   50  A    between atoms: _127  and  _128
REMARK   51  A    between atoms: _128  and  _129
REMARK   52  A    between atoms: _129  and  _130
REMARK   53  A    between atoms: _130  and  _131
REMARK   54  A    between atoms: _135  and  _137
REMARK   55  A    between atoms: _137  and  _138
REMARK   56  A    between atoms: _137  and  _140
REMARK   57  A    between atoms: _140  and  _141
REMARK   58  A    between atoms: _143  and  _145
REMARK   59  A    between atoms: _145  and  _146
REMARK   60  A    between atoms: _145  and  _148
REMARK   61  A    between atoms: _148  and  _149
REMARK   62  A    between atoms: _149  and  _150
REMARK   63  A    between atoms: _152  and  _154
REMARK   64  A    between atoms: _154  and  _155
REMARK   65  A    between atoms: _154  and  _157
REMARK   66  A    between atoms: _157  and  _158
REMARK   67  A    between atoms: _161  and  _163
REMARK   68  A    between atoms: _163  and  _164
REMARK   69  A    between atoms: _163  and  _166
REMARK   70  A    between atoms: _166  and  _167
REMARK   71  A    between atoms: _169  and  _171
REMARK   72  A    between atoms: _171  and  _172
REMARK   73  A    between atoms: _171  and  _174
REMARK   74  A    between atoms: _177  and  _179
REMARK   75  A    between atoms: _179  and  _180
REMARK   76  A    between atoms: _179  and  _182
REMARK   77  A    between atoms: _185  and  _187
REMARK   78  A    between atoms: _187  and  _188
REMARK   79  A    between atoms: _187  and  _190
REMARK   80  A    between atoms: _190  and  _191
REMARK   81  A    between atoms: _195  and  _196
REMARK   82  A    between atoms: _201  and  _203
REMARK   83  A    between atoms: _203  and  _204
REMARK   84  A    between atoms: _203  and  _206
REMARK   85  A    between atoms: _206  and  _207
REMARK   86  A    between atoms: _212  and  _213
REMARK   87  A    between atoms: _215  and  _217
REMARK   88  A    between atoms: _217  and  _218
REMARK   89  A    between atoms: _217  and  _220
REMARK   90  A    between atoms: _220  and  _221
REMARK   91  A    between atoms: _221  and  _222
REMARK   92  A    between atoms: _224  and  _226
REMARK   93  A    between atoms: _226  and  _227
REMARK   94  A    between atoms: _226  and  _229
REMARK   95  A    between atoms: _229  and  _230
REMARK   96  A    between atoms: _230  and  _231
REMARK   97  A    between atoms: _231  and  _232
REMARK   98  A    between atoms: _232  and  _233
REMARK   99  A    between atoms: _237  and  _239
REMARK  100  A    between atoms: _239  and  _240
REMARK  101  A    between atoms: _239  and  _242
REMARK  102  A    between atoms: _242  and  _243
REMARK  103  A    between atoms: _248  and  _250
REMARK  104  A    between atoms: _250  and  _251
REMARK  105  A    between atoms: _253  and  _255
REMARK  106  A    between atoms: _255  and  _256
REMARK  107  A    between atoms: _255  and  _258
REMARK  108  A    between atoms: _258  and  _259
REMARK  109  A    between atoms: _262  and  _264
REMARK  110  A    between atoms: _264  and  _265
REMARK  111  A    between atoms: _264  and  _267
REMARK  112  A    between atoms: _267  and  _268
REMARK  113  A    between atoms: _271  and  _273
REMARK  114  A    between atoms: _273  and  _274
REMARK  115  A    between atoms: _273  and  _276
REMARK  116  A    between atoms: _276  and  _277
REMARK  117  A    between atoms: _277  and  _278
REMARK  118  A    between atoms: _278  and  _279
REMARK  119  A    between atoms: _288  and  _290
REMARK  120  A    between atoms: _290  and  _291
REMARK  121  A    between atoms: _290  and  _293
REMARK  122  A    between atoms: _293  and  _294
REMARK  123  A    between atoms: _299  and  _301
REMARK  124  A    between atoms: _301  and  _302
REMARK  125  A    between atoms: _301  and  _304
REMARK  126  A    between atoms: _304  and  _305
REMARK  127  A    between atoms: _311  and  _313
REMARK  128  A    between atoms: _313  and  _314
REMARK  129  A    between atoms: _313  and  _316
REMARK  130  A    between atoms: _316  and  _317
REMARK  131  A    between atoms: _322  and  _324
REMARK  132  A    between atoms: _324  and  _325
REMARK  133  A    between atoms: _324  and  _327
REMARK  134  A    between atoms: _327  and  _328
REMARK  135  A    between atoms: _333  and  _335
REMARK  136  A    between atoms: _335  and  _336
REMARK  137  A    between atoms: _335  and  _338
REMARK  138  A    between atoms: _338  and  _339
REMARK  139  A    between atoms: _344  and  _346
REMARK  140  A    between atoms: _346  and  _347
REMARK  141  A    between atoms: _346  and  _349
REMARK  142  A    between atoms: _349  and  _350
REMARK  143  A    between atoms: _353  and  _355
REMARK  144  A    between atoms: _355  and  _356
REMARK  145  A    between atoms: _359  and  _361
REMARK  146  A    between atoms: _361  and  _362
REMARK  147  A    between atoms: _365  and  _367
REMARK  148  A    between atoms: _367  and  _368
REMARK  149  A    between atoms: _367  and  _370
REMARK  150  A    between atoms: _370  and  _371
REMARK  151  A    between atoms: _371  and  _372
REMARK  152  A    between atoms: _372  and  _373
REMARK  153  A    between atoms: _382  and  _384
REMARK  154  A    between atoms: _384  and  _385
REMARK  155  A    between atoms: _384  and  _387
REMARK  156  A    between atoms: _387  and  _388
REMARK  157  A    between atoms: _393  and  _395
REMARK  158  A    between atoms: _395  and  _396
REMARK  159  A    between atoms: _395  and  _398
REMARK  160  A    between atoms: _400  and  _402
REMARK  161  A    between atoms: _402  and  _403
REMARK  162  A    between atoms: _402  and  _405
REMARK  163  A    between atoms: _405  and  _406
REMARK  164  A    between atoms: _406  and  _407
REMARK  165  A    between atoms: _409  and  _411
REMARK  166  A    between atoms: _411  and  _412
REMARK  167  A    between atoms: _411  and  _414
REMARK  168  A    between atoms: _414  and  _415
REMARK  169  A    between atoms: _418  and  _420
REMARK  170  A    between atoms: _420  and  _421
REMARK  171  A    between atoms: _420  and  _423
REMARK  172  A    between atoms: _423  and  _424
REMARK  173  A    between atoms: _427  and  _429
REMARK  174  A    between atoms: _429  and  _430
REMARK  175  A    between atoms: _429  and  _432
REMARK  176  A    between atoms: _432  and  _433
REMARK  177  A    between atoms: _433  and  _434
REMARK  178  A    between atoms: _434  and  _435
REMARK  179  A    between atoms: _435  and  _436
REMARK  180  A    between atoms: _440  and  _442
REMARK  181  A    between atoms: _442  and  _443
REMARK  182  A    between atoms: _442  and  _445
REMARK  183  A    between atoms: _448  and  _450
REMARK  184  A    between atoms: _450  and  _451
REMARK  185  A    between atoms: _454  and  _456
REMARK  186  A    between atoms: _456  and  _457
REMARK  187  A    between atoms: _456  and  _459
REMARK  188  A    between atoms: _459  and  _460
REMARK  189  A    between atoms: _463  and  _465
REMARK  190  A    between atoms: _465  and  _466
REMARK  191  A    between atoms: _465  and  _468
REMARK  192  A    between atoms: _468  and  _469
REMARK  193  A    between atoms: _475  and  _477
REMARK  194  A    between atoms: _477  and  _478
REMARK  195  A    between atoms: _477  and  _480
REMARK  196  A    between atoms: _480  and  _481
REMARK  197  A    between atoms: _484  and  _486
REMARK  198  A    between atoms: _486  and  _487
REMARK  199  A    between atoms: _490  and  _492
REMARK  200  A    between atoms: _492  and  _493
REMARK  201  A    between atoms: _492  and  _495
REMARK  202  A    between atoms: _495  and  _496
REMARK  203  A    between atoms: _496  and  _497
REMARK  204  A    between atoms: _497  and  _498
REMARK  205  A    between atoms: _507  and  _509
REMARK  206  A    between atoms: _509  and  _510
REMARK  207  A    between atoms: _509  and  _512
REMARK  208  A    between atoms: _512  and  _513
REMARK  209  A    between atoms: _516  and  _518
REMARK  210  A    between atoms: _518  and  _519
REMARK  211  A    between atoms: _518  and  _521
REMARK  212  A    between atoms: _521  and  _522
REMARK  213  A    between atoms: _522  and  _523
REMARK  214  A    between atoms: _525  and  _527
REMARK  215  A    between atoms: _527  and  _528
REMARK  216  A    between atoms: _527  and  _530
REMARK  217  A    between atoms: _530  and  _531
REMARK  218  A    between atoms: _536  and  _537
REMARK  219  A    between atoms: _539  and  _541
REMARK  220  A    between atoms: _541  and  _542
REMARK  221  A    between atoms: _541  and  _544
REMARK  222  A    between atoms: _544  and  _545
REMARK  223  A    between atoms: _548  and  _550
REMARK  224  A    between atoms: _550  and  _551
REMARK  225  A    between atoms: _550  and  _553
REMARK  226  A    between atoms: _553  and  _554
REMARK  227  A    between atoms: _559  and  _560
REMARK                            x       y       z     vdW  Elec       q    Type
REMARK                         _______ _______ _______ _____ _____    ______ ____
ROOT
ATOM      1  O   HOH     1      23.569  74.698  -4.628  0.00  0.00    +0.000 OA
ENDROOT
TORSDOF 0
REMARK  Name = ../refined-set-2016/2wgj/2wgj_pocket.pdb
REMARK  227 active torsions:
REMARK  status: ('A' for Active; 'I' for Inactive)
REMARK    1  A    between atoms: _1  and  _3
REMARK    2  A    between atoms: _3  and  _4
REMARK    3  A    between atoms: _3  and  _6
REMARK    4  A    between atoms: _9  and  _11
REMARK    5  A    between atoms: _11  and  _12
REMARK    6  A    between atoms: _11  and  _14
REMARK    7  A    between atoms: _14  and  _15
REMARK    8  A    between atoms: _18  and  _20
REMARK    9  A    between atoms: _20  and  _21
REMARK   10  A    between atoms: _23  and  _25
REMARK   11  A    between atoms: _25  and  _26
REMARK   12  A    between atoms: _25  and  _28
REMARK   13  A    between atoms: _28  and  _29
REMARK   14  A    between atoms: _29  and  _30
REMARK   15  A    between atoms: _30  and  _31
REMARK   16  A    between atoms: _40  and  _42
REMARK   17  A    between atoms: _42  and  _43
REMARK   18  A    between atoms: _45  and  _47
REMARK   19  A    between atoms: _47  and  _48
REMARK   20  A    between atoms: _50  and  _52
REMARK   21  A    between atoms: _52  and  _53
REMARK   22  A    between atoms: _52  and  _55
REMARK   23  A    between atoms: _57  and  _59
REMARK   24  A    between atoms: _59  and  _60
REMARK   25  A    between atoms: _59  and  _62
REMARK   26  A    between atoms: _65  and  _67
REMARK   27  A    between atoms: _67  and  _68
REMARK   28  A    between atoms: _67  and  _70
REMARK   29  A    between atoms: _70  and  _71
REMARK   30  A    between atoms: _76  and  _77
REMARK   31  A    between atoms: _79  and  _81
REMARK   32  A    between atoms: _81  and  _82
REMARK   33  A    between atoms: _81  and  _84
REMARK   34  A    between atoms: _84  and  _85
REMARK   35  A    between atoms: _90  and  _92
REMARK   36  A    between atoms: _92  and  _93
REMARK   37  A    between atoms: _92  and  _95
REMARK   38  A    between atoms: _95  and  _96
REMARK   39  A    between atoms: _101  and  _103
REMARK   40  A    between atoms: _103  and  _104
REMARK   41  A    between atoms: _103  and  _106
REMARK   42  A    between atoms: _108  and  _110
REMARK   43  A    between atoms: _110  and  _111
REMARK   44  A    between atoms: _114  and  _116
REMARK   45  A    between atoms: _116  and  _117
REMARK   46  A    between atoms: _116  and  _119
REMARK   47  A    between atoms: _122  and  _124
REMARK   48  A    between atoms: _124  and  _125
REMARK   49  A    between atoms: _124  and  _127
REMARK   50  A    between atoms: _127  and  _128
REMARK   51  A    between atoms: _128  and  _129
REMARK   52  A    between atoms: _129  and  _130
REMARK   53  A    between atoms: _130  and  _131
REMARK   54  A    between atoms: _135  and  _137
REMARK   55  A    between atoms: _137  and  _138
REMARK   56  A    between atoms: _137  and  _140
REMARK   57  A    between atoms: _140  and  _141
REMARK   58  A    between atoms: _143  and  _145
REMARK   59  A    between atoms: _145  and  _146
REMARK   60  A    between atoms: _145  and  _148
REMARK   61  A    between atoms: _148  and  _149
REMARK   62  A    between atoms: _149  and  _150
REMARK   63  A    between atoms: _152  and  _154
REMARK   64  A    between atoms: _154  and  _155
REMARK   65  A    between atoms: _154  and  _157
REMARK   66  A    between atoms: _157  and  _158
REMARK   67  A    between atoms: _161  and  _163
REMARK   68  A    between atoms: _163  and  _164
REMARK   69  A    between atoms: _163  and  _166
REMARK   70  A    between atoms: _166  and  _167
REMARK   71  A    between atoms: _169  and  _171
REMARK   72  A    between atoms: _171  and  _172
REMARK   73  A    between atoms: _171  and  _174
REMARK   74  A    between atoms: _177  and  _179
REMARK   75  A    between atoms: _179  and  _180
REMARK   76  A    between atoms: _179  and  _182
REMARK   77  A    between atoms: _185  and  _187
REMARK   78  A    between atoms: _187  and  _188
REMARK   79  A    between atoms: _187  and  _190
REMARK   80  A    between atoms: _190  and  _191
REMARK   81  A    between atoms: _195  and  _196
REMARK   82  A    between atoms: _201  and  _203
REMARK   83  A    between atoms: _203  and  _204
REMARK   84  A    between atoms: _203  and  _206
REMARK   85  A    between atoms: _206  and  _207
REMARK   86  A    between atoms: _212  and  _213
REMARK   87  A    between atoms: _215  and  _217
REMARK   88  A    between atoms: _217  and  _218
REMARK   89  A    between atoms: _217  and  _220
REMARK   90  A    between atoms: _220  and  _221
REMARK   91  A    between atoms: _221  and  _222
REMARK   92  A    between atoms: _224  and  _226
REMARK   93  A    between atoms: _226  and  _227
REMARK   94  A    between atoms: _226  and  _229
REMARK   95  A    between atoms: _229  and  _230
REMARK   96  A    between atoms: _230  and  _231
REMARK   97  A    between atoms: _231  and  _232
REMARK   98  A    between atoms: _232  and  _233
REMARK   99  A    between atoms: _237  and  _239
REMARK  100  A    between atoms: _239  and  _240
REMARK  101  A    between atoms: _239  and  _242
REMARK  102  A    between atoms: _242  and  _243
REMARK  103  A    between atoms: _248  and  _250
REMARK  104  A    between atoms: _250  and  _251
REMARK  105  A    between atoms: _253  and  _255
REMARK  106  A    between atoms: _255  and  _256
REMARK  107  A    between atoms: _255  and  _258
REMARK  108  A    between atoms: _258  and  _259
REMARK  109  A    between atoms: _262  and  _264
REMARK  110  A    between atoms: _264  and  _265
REMARK  111  A    between atoms: _264  and  _267
REMARK  112  A    between atoms: _267  and  _268
REMARK  113  A    between atoms: _271  and  _273
REMARK  114  A    between atoms: _273  and  _274
REMARK  115  A    between atoms: _273  and  _276
REMARK  116  A    between atoms: _276  and  _277
REMARK  117  A    between atoms: _277  and  _278
REMARK  118  A    between atoms: _278  and  _279
REMARK  119  A    between atoms: _288  and  _290
REMARK  120  A    between atoms: _290  and  _291
REMARK  121  A    between atoms: _290  and  _293
REMARK  122  A    between atoms: _293  and  _294
REMARK  123  A    between atoms: _299  and  _301
REMARK  124  A    between atoms: _301  and  _302
REMARK  125  A    between atoms: _301  and  _304
REMARK  126  A    between atoms: _304  and  _305
REMARK  127  A    between atoms: _311  and  _313
REMARK  128  A    between atoms: _313  and  _314
REMARK  129  A    between atoms: _313  and  _316
REMARK  130  A    between atoms: _316  and  _317
REMARK  131  A    between atoms: _322  and  _324
REMARK  132  A    between atoms: _324  and  _325
REMARK  133  A    between atoms: _324  and  _327
REMARK  134  A    between atoms: _327  and  _328
REMARK  135  A    between atoms: _333  and  _335
REMARK  136  A    between atoms: _335  and  _336
REMARK  137  A    between atoms: _335  and  _338
REMARK  138  A    between atoms: _338  and  _339
REMARK  139  A    between atoms: _344  and  _346
REMARK  140  A    between atoms: _346  and  _347
REMARK  141  A    between atoms: _346  and  _349
REMARK  142  A    between atoms: _349  and  _350
REMARK  143  A    between atoms: _353  and  _355
REMARK  144  A    between atoms: _355  and  _356
REMARK  145  A    between atoms: _359  and  _361
REMARK  146  A    between atoms: _361  and  _362
REMARK  147  A    between atoms: _365  and  _367
REMARK  148  A    between atoms: _367  and  _368
REMARK  149  A    between atoms: _367  and  _370
REMARK  150  A    between atoms: _370  and  _371
REMARK  151  A    between atoms: _371  and  _372
REMARK  152  A    between atoms: _372  and  _373
REMARK  153  A    between atoms: _382  and  _384
REMARK  154  A    between atoms: _384  and  _385
REMARK  155  A    between atoms: _384  and  _387
REMARK  156  A    between atoms: _387  and  _388
REMARK  157  A    between atoms: _393  and  _395
REMARK  158  A    between atoms: _395  and  _396
REMARK  159  A    between atoms: _395  and  _398
REMARK  160  A    between atoms: _400  and  _402
REMARK  161  A    between atoms: _402  and  _403
REMARK  162  A    between atoms: _402  and  _405
REMARK  163  A    between atoms: _405  and  _406
REMARK  164  A    between atoms: _406  and  _407
REMARK  165  A    between atoms: _409  and  _411
REMARK  166  A    between atoms: _411  and  _412
REMARK  167  A    between atoms: _411  and  _414
REMARK  168  A    between atoms: _414  and  _415
REMARK  169  A    between atoms: _418  and  _420
REMARK  170  A    between atoms: _420  and  _421
REMARK  171  A    between atoms: _420  and  _423
REMARK  172  A    between atoms: _423  and  _424
REMARK  173  A    between atoms: _427  and  _429
REMARK  174  A    between atoms: _429  and  _430
REMARK  175  A    between atoms: _429  and  _432
REMARK  176  A    between atoms: _432  and  _433
REMARK  177  A    between atoms: _433  and  _434
REMARK  178  A    between atoms: _434  and  _435
REMARK  179  A    between atoms: _435  and  _436
REMARK  180  A    between atoms: _440  and  _442
REMARK  181  A    between atoms: _442  and  _443
REMARK  182  A    between atoms: _442  and  _445
REMARK  183  A    between atoms: _448  and  _450
REMARK  184  A    between atoms: _450  and  _451
REMARK  185  A    between atoms: _454  and  _456
REMARK  186  A    between atoms: _456  and  _457
REMARK  187  A    between atoms: _456  and  _459
REMARK  188  A    between atoms: _459  and  _460
REMARK  189  A    between atoms: _463  and  _465
REMARK  190  A    between atoms: _465  and  _466
REMARK  191  A    between atoms: _465  and  _468
REMARK  192  A    between atoms: _468  and  _469
REMARK  193  A    between atoms: _475  and  _477
REMARK  194  A    between atoms: _477  and  _478
REMARK  195  A    between atoms: _477  and  _480
REMARK  196  A    between atoms: _480  and  _481
REMARK  197  A    between atoms: _484  and  _486
REMARK  198  A    between atoms: _486  and  _487
REMARK  199  A    between atoms: _490  and  _492
REMARK  200  A    between atoms: _492  and  _493
REMARK  201  A    between atoms: _492  and  _495
REMARK  202  A    between atoms: _495  and  _496
REMARK  203  A    between atoms: _496  and  _497
REMARK  204  A    between atoms: _497  and  _498
REMARK  205  A    between atoms: _507  and  _509
REMARK  206  A    between atoms: _509  and  _510
REMARK  207  A    between atoms: _509  and  _512
REMARK  208  A    between atoms: _512  and  _513
REMARK  209  A    between atoms: _516  and  _518
REMARK  210  A    between atoms: _518  and  _519
REMARK  211  A    between atoms: _518  and  _521
REMARK  212  A    between atoms: _521  and  _522
REMARK  213  A    between atoms: _522  and  _523
REMARK  214  A    between atoms: _525  and  _527
REMARK  215  A    between atoms: _527  and  _528
REMARK  216  A    between atoms: _527  and  _530
REMARK  217  A    between atoms: _530  and  _531
REMARK  218  A    between atoms: _536  and  _537
REMARK  219  A    between atoms: _539  and  _541
REMARK  220  A    between atoms: _541  and  _542
REMARK  221  A    between atoms: _541  and  _544
REMARK  222  A    between atoms: _544  and  _545
REMARK  223  A    between atoms: _548  and  _550
REMARK  224  A    between atoms: _550  and  _551
REMARK  225  A    between atoms: _550  and  _553
REMARK  226  A    between atoms: _553  and  _554
REMARK  227  A    between atoms: _559  and  _560
REMARK                            x       y       z     vdW  Elec       q    Type
REMARK                         _______ _______ _______ _____ _____    ______ ____
ROOT
ATOM      1  O   HOH     1      26.826  76.647  -1.975  0.00  0.00    +0.000 OA
ENDROOT
TORSDOF 0
REMARK  Name = ../refined-set-2016/2wgj/2wgj_pocket.pdb
REMARK  227 active torsions:
REMARK  status: ('A' for Active; 'I' for Inactive)
REMARK    1  A    between atoms: _1  and  _3
REMARK    2  A    between atoms: _3  and  _4
REMARK    3  A    between atoms: _3  and  _6
REMARK    4  A    between atoms: _9  and  _11
REMARK    5  A    between atoms: _11  and  _12
REMARK    6  A    between atoms: _11  and  _14
REMARK    7  A    between atoms: _14  and  _15
REMARK    8  A    between atoms: _18  and  _20
REMARK    9  A    between atoms: _20  and  _21
REMARK   10  A    between atoms: _23  and  _25
REMARK   11  A    between atoms: _25  and  _26
REMARK   12  A    between atoms: _25  and  _28
REMARK   13  A    between atoms: _28  and  _29
REMARK   14  A    between atoms: _29  and  _30
REMARK   15  A    between atoms: _30  and  _31
REMARK   16  A    between atoms: _40  and  _42
REMARK   17  A    between atoms: _42  and  _43
REMARK   18  A    between atoms: _45  and  _47
REMARK   19  A    between atoms: _47  and  _48
REMARK   20  A    between atoms: _50  and  _52
REMARK   21  A    between atoms: _52  and  _53
REMARK   22  A    between atoms: _52  and  _55
REMARK   23  A    between atoms: _57  and  _59
REMARK   24  A    between atoms: _59  and  _60
REMARK   25  A    between atoms: _59  and  _62
REMARK   26  A    between atoms: _65  and  _67
REMARK   27  A    between atoms: _67  and  _68
REMARK   28  A    between atoms: _67  and  _70
REMARK   29  A    between atoms: _70  and  _71
REMARK   30  A    between atoms: _76  and  _77
REMARK   31  A    between atoms: _79  and  _81
REMARK   32  A    between atoms: _81  and  _82
REMARK   33  A    between atoms: _81  and  _84
REMARK   34  A    between atoms: _84  and  _85
REMARK   35  A    between atoms: _90  and  _92
REMARK   36  A    between atoms: _92  and  _93
REMARK   37  A    between atoms: _92  and  _95
REMARK   38  A    between atoms: _95  and  _96
REMARK   39  A    between atoms: _101  and  _103
REMARK   40  A    between atoms: _103  and  _104
REMARK   41  A    between atoms: _103  and  _106
REMARK   42  A    between atoms: _108  and  _110
REMARK   43  A    between atoms: _110  and  _111
REMARK   44  A    between atoms: _114  and  _116
REMARK   45  A    between atoms: _116  and  _117
REMARK   46  A    between atoms: _116  and  _119
REMARK   47  A    between atoms: _122  and  _124
REMARK   48  A    between atoms: _124  and  _125
REMARK   49  A    between atoms: _124  and  _127
REMARK   50  A    between atoms: _127  and  _128
REMARK   51  A    between atoms: _128  and  _129
REMARK   52  A    between atoms: _129  and  _130
REMARK   53  A    between atoms: _130  and  _131
REMARK   54  A    between atoms: _135  and  _137
REMARK   55  A    between atoms: _137  and  _138
REMARK   56  A    between atoms: _137  and  _140
REMARK   57  A    between atoms: _140  and  _141
REMARK   58  A    between atoms: _143  and  _145
REMARK   59  A    between atoms: _145  and  _146
REMARK   60  A    between atoms: _145  and  _148
REMARK   61  A    between atoms: _148  and  _149
REMARK   62  A    between atoms: _149  and  _150
REMARK   63  A    between atoms: _152  and  _154
REMARK   64  A    between atoms: _154  and  _155
REMARK   65  A    between atoms: _154  and  _157
REMARK   66  A    between atoms: _157  and  _158
REMARK   67  A    between atoms: _161  and  _163
REMARK   68  A    between atoms: _163  and  _164
REMARK   69  A    between atoms: _163  and  _166
REMARK   70  A    between atoms: _166  and  _167
REMARK   71  A    between atoms: _169  and  _171
REMARK   72  A    between atoms: _171  and  _172
REMARK   73  A    between atoms: _171  and  _174
REMARK   74  A    between atoms: _177  and  _179
REMARK   75  A    between atoms: _179  and  _180
REMARK   76  A    between atoms: _179  and  _182
REMARK   77  A    between atoms: _185  and  _187
REMARK   78  A    between atoms: _187  and  _188
REMARK   79  A    between atoms: _187  and  _190
REMARK   80  A    between atoms: _190  and  _191
REMARK   81  A    between atoms: _195  and  _196
REMARK   82  A    between atoms: _201  and  _203
REMARK   83  A    between atoms: _203  and  _204
REMARK   84  A    between atoms: _203  and  _206
REMARK   85  A    between atoms: _206  and  _207
REMARK   86  A    between atoms: _212  and  _213
REMARK   87  A    between atoms: _215  and  _217
REMARK   88  A    between atoms: _217  and  _218
REMARK   89  A    between atoms: _217  and  _220
REMARK   90  A    between atoms: _220  and  _221
REMARK   91  A    between atoms: _221  and  _222
REMARK   92  A    between atoms: _224  and  _226
REMARK   93  A    between atoms: _226  and  _227
REMARK   94  A    between atoms: _226  and  _229
REMARK   95  A    between atoms: _229  and  _230
REMARK   96  A    between atoms: _230  and  _231
REMARK   97  A    between atoms: _231  and  _232
REMARK   98  A    between atoms: _232  and  _233
REMARK   99  A    between atoms: _237  and  _239
REMARK  100  A    between atoms: _239  and  _240
REMARK  101  A    between atoms: _239  and  _242
REMARK  102  A    between atoms: _242  and  _243
REMARK  103  A    between atoms: _248  and  _250
REMARK  104  A    between atoms: _250  and  _251
REMARK  105  A    between atoms: _253  and  _255
REMARK  106  A    between atoms: _255  and  _256
REMARK  107  A    between atoms: _255  and  _258
REMARK  108  A    between atoms: _258  and  _259
REMARK  109  A    between atoms: _262  and  _264
REMARK  110  A    between atoms: _264  and  _265
REMARK  111  A    between atoms: _264  and  _267
REMARK  112  A    between atoms: _267  and  _268
REMARK  113  A    between atoms: _271  and  _273
REMARK  114  A    between atoms: _273  and  _274
REMARK  115  A    between atoms: _273  and  _276
REMARK  116  A    between atoms: _276  and  _277
REMARK  117  A    between atoms: _277  and  _278
REMARK  118  A    between atoms: _278  and  _279
REMARK  119  A    between atoms: _288  and  _290
REMARK  120  A    between atoms: _290  and  _291
REMARK  121  A    between atoms: _290  and  _293
REMARK  122  A    between atoms: _293  and  _294
REMARK  123  A    between atoms: _299  and  _301
REMARK  124  A    between atoms: _301  and  _302
REMARK  125  A    between atoms: _301  and  _304
REMARK  126  A    between atoms: _304  and  _305
REMARK  127  A    between atoms: _311  and  _313
REMARK  128  A    between atoms: _313  and  _314
REMARK  129  A    between atoms: _313  and  _316
REMARK  130  A    between atoms: _316  and  _317
REMARK  131  A    between atoms: _322  and  _324
REMARK  132  A    between atoms: _324  and  _325
REMARK  133  A    between atoms: _324  and  _327
REMARK  134  A    between atoms: _327  and  _328
REMARK  135  A    between atoms: _333  and  _335
REMARK  136  A    between atoms: _335  and  _336
REMARK  137  A    between atoms: _335  and  _338
REMARK  138  A    between atoms: _338  and  _339
REMARK  139  A    between atoms: _344  and  _346
REMARK  140  A    between atoms: _346  and  _347
REMARK  141  A    between atoms: _346  and  _349
REMARK  142  A    between atoms: _349  and  _350
REMARK  143  A    between atoms: _353  and  _355
REMARK  144  A    between atoms: _355  and  _356
REMARK  145  A    between atoms: _359  and  _361
REMARK  146  A    between atoms: _361  and  _362
REMARK  147  A    between atoms: _365  and  _367
REMARK  148  A    between atoms: _367  and  _368
REMARK  149  A    between atoms: _367  and  _370
REMARK  150  A    between atoms: _370  and  _371
REMARK  151  A    between atoms: _371  and  _372
REMARK  152  A    between atoms: _372  and  _373
REMARK  153  A    between atoms: _382  and  _384
REMARK  154  A    between atoms: _384  and  _385
REMARK  155  A    between atoms: _384  and  _387
REMARK  156  A    between atoms: _387  and  _388
REMARK  157  A    between atoms: _393  and  _395
REMARK  158  A    between atoms: _395  and  _396
REMARK  159  A    between atoms: _395  and  _398
REMARK  160  A    between atoms: _400  and  _402
REMARK  161  A    between atoms: _402  and  _403
REMARK  162  A    between atoms: _402  and  _405
REMARK  163  A    between atoms: _405  and  _406
REMARK  164  A    between atoms: _406  and  _407
REMARK  165  A    between atoms: _409  and  _411
REMARK  166  A    between atoms: _411  and  _412
REMARK  167  A    between atoms: _411  and  _414
REMARK  168  A    between atoms: _414  and  _415
REMARK  169  A    between atoms: _418  and  _420
REMARK  170  A    between atoms: _420  and  _421
REMARK  171  A    between atoms: _420  and  _423
REMARK  172  A    between atoms: _423  and  _424
REMARK  173  A    between atoms: _427  and  _429
REMARK  174  A    between atoms: _429  and  _430
REMARK  175  A    between atoms: _429  and  _432
REMARK  176  A    between atoms: _432  and  _433
REMARK  177  A    between atoms: _433  and  _434
REMARK  178  A    between atoms: _434  and  _435
REMARK  179  A    between atoms: _435  and  _436
REMARK  180  A    between atoms: _440  and  _442
REMARK  181  A    between atoms: _442  and  _443
REMARK  182  A    between atoms: _442  and  _445
REMARK  183  A    between atoms: _448  and  _450
REMARK  184  A    between atoms: _450  and  _451
REMARK  185  A    between atoms: _454  and  _456
REMARK  186  A    between atoms: _456  and  _457
REMARK  187  A    between atoms: _456  and  _459
REMARK  188  A    between atoms: _459  and  _460
REMARK  189  A    between atoms: _463  and  _465
REMARK  190  A    between atoms: _465  and  _466
REMARK  191  A    between atoms: _465  and  _468
REMARK  192  A    between atoms: _468  and  _469
REMARK  193  A    between atoms: _475  and  _477
REMARK  194  A    between atoms: _477  and  _478
REMARK  195  A    between atoms: _477  and  _480
REMARK  196  A    between atoms: _480  and  _481
REMARK  197  A    between atoms: _484  and  _486
REMARK  198  A    between atoms: _486  and  _487
REMARK  199  A    between atoms: _490  and  _492
REMARK  200  A    between atoms: _492  and  _493
REMARK  201  A    between atoms: _492  and  _495
REMARK  202  A    between atoms: _495  and  _496
REMARK  203  A    between atoms: _496  and  _497
REMARK  204  A    between atoms: _497  and  _498
REMARK  205  A    between atoms: _507  and  _509
REMARK  206  A    between atoms: _509  and  _510
REMARK  207  A    between atoms: _509  and  _512
REMARK  208  A    between atoms: _512  and  _513
REMARK  209  A    between atoms: _516  and  _518
REMARK  210  A    between atoms: _518  and  _519
REMARK  211  A    between atoms: _518  and  _521
REMARK  212  A    between atoms: _521  and  _522
REMARK  213  A    between atoms: _522  and  _523
REMARK  214  A    between atoms: _525  and  _527
REMARK  215  A    between atoms: _527  and  _528
REMARK  216  A    between atoms: _527  and  _530
REMARK  217  A    between atoms: _530  and  _531
REMARK  218  A    between atoms: _536  and  _537
REMARK  219  A    between atoms: _539  and  _541
REMARK  220  A    between atoms: _541  and  _542
REMARK  221  A    between atoms: _541  and  _544
REMARK  222  A    between atoms: _544  and  _545
REMARK  223  A    between atoms: _548  and  _550
REMARK  224  A    between atoms: _550  and  _551
REMARK  225  A    between atoms: _550  and  _553
REMARK  226  A    between atoms: _553  and  _554
REMARK  227  A    between atoms: _559  and  _560
REMARK                            x       y       z     vdW  Elec       q    Type
REMARK                         _______ _______ _______ _____ _____    ______ ____
ROOT
ATOM      1  O   HOH     1      29.110  78.047  -0.197  0.00  0.00    +0.000 OA
ENDROOT
TORSDOF 0
REMARK  Name = ../refined-set-2016/2wgj/2wgj_pocket.pdb
REMARK  227 active torsions:
REMARK  status: ('A' for Active; 'I' for Inactive)
REMARK    1  A    between atoms: _1  and  _3
REMARK    2  A    between atoms: _3  and  _4
REMARK    3  A    between atoms: _3  and  _6
REMARK    4  A    between atoms: _9  and  _11
REMARK    5  A    between atoms: _11  and  _12
REMARK    6  A    between atoms: _11  and  _14
REMARK    7  A    between atoms: _14  and  _15
REMARK    8  A    between atoms: _18  and  _20
REMARK    9  A    between atoms: _20  and  _21
REMARK   10  A    between atoms: _23  and  _25
REMARK   11  A    between atoms: _25  and  _26
REMARK   12  A    between atoms: _25  and  _28
REMARK   13  A    between atoms: _28  and  _29
REMARK   14  A    between atoms: _29  and  _30
REMARK   15  A    between atoms: _30  and  _31
REMARK   16  A    between atoms: _40  and  _42
REMARK   17  A    between atoms: _42  and  _43
REMARK   18  A    between atoms: _45  and  _47
REMARK   19  A    between atoms: _47  and  _48
REMARK   20  A    between atoms: _50  and  _52
REMARK   21  A    between atoms: _52  and  _53
REMARK   22  A    between atoms: _52  and  _55
REMARK   23  A    between atoms: _57  and  _59
REMARK   24  A    between atoms: _59  and  _60
REMARK   25  A    between atoms: _59  and  _62
REMARK   26  A    between atoms: _65  and  _67
REMARK   27  A    between atoms: _67  and  _68
REMARK   28  A    between atoms: _67  and  _70
REMARK   29  A    between atoms: _70  and  _71
REMARK   30  A    between atoms: _76  and  _77
REMARK   31  A    between atoms: _79  and  _81
REMARK   32  A    between atoms: _81  and  _82
REMARK   33  A    between atoms: _81  and  _84
REMARK   34  A    between atoms: _84  and  _85
REMARK   35  A    between atoms: _90  and  _92
REMARK   36  A    between atoms: _92  and  _93
REMARK   37  A    between atoms: _92  and  _95
REMARK   38  A    between atoms: _95  and  _96
REMARK   39  A    between atoms: _101  and  _103
REMARK   40  A    between atoms: _103  and  _104
REMARK   41  A    between atoms: _103  and  _106
REMARK   42  A    between atoms: _108  and  _110
REMARK   43  A    between atoms: _110  and  _111
REMARK   44  A    between atoms: _114  and  _116
REMARK   45  A    between atoms: _116  and  _117
REMARK   46  A    between atoms: _116  and  _119
REMARK   47  A    between atoms: _122  and  _124
REMARK   48  A    between atoms: _124  and  _125
REMARK   49  A    between atoms: _124  and  _127
REMARK   50  A    between atoms: _127  and  _128
REMARK   51  A    between atoms: _128  and  _129
REMARK   52  A    between atoms: _129  and  _130
REMARK   53  A    between atoms: _130  and  _131
REMARK   54  A    between atoms: _135  and  _137
REMARK   55  A    between atoms: _137  and  _138
REMARK   56  A    between atoms: _137  and  _140
REMARK   57  A    between atoms: _140  and  _141
REMARK   58  A    between atoms: _143  and  _145
REMARK   59  A    between atoms: _145  and  _146
REMARK   60  A    between atoms: _145  and  _148
REMARK   61  A    between atoms: _148  and  _149
REMARK   62  A    between atoms: _149  and  _150
REMARK   63  A    between atoms: _152  and  _154
REMARK   64  A    between atoms: _154  and  _155
REMARK   65  A    between atoms: _154  and  _157
REMARK   66  A    between atoms: _157  and  _158
REMARK   67  A    between atoms: _161  and  _163
REMARK   68  A    between atoms: _163  and  _164
REMARK   69  A    between atoms: _163  and  _166
REMARK   70  A    between atoms: _166  and  _167
REMARK   71  A    between atoms: _169  and  _171
REMARK   72  A    between atoms: _171  and  _172
REMARK   73  A    between atoms: _171  and  _174
REMARK   74  A    between atoms: _177  and  _179
REMARK   75  A    between atoms: _179  and  _180
REMARK   76  A    between atoms: _179  and  _182
REMARK   77  A    between atoms: _185  and  _187
REMARK   78  A    between atoms: _187  and  _188
REMARK   79  A    between atoms: _187  and  _190
REMARK   80  A    between atoms: _190  and  _191
REMARK   81  A    between atoms: _195  and  _196
REMARK   82  A    between atoms: _201  and  _203
REMARK   83  A    between atoms: _203  and  _204
REMARK   84  A    between atoms: _203  and  _206
REMARK   85  A    between atoms: _206  and  _207
REMARK   86  A    between atoms: _212  and  _213
REMARK   87  A    between atoms: _215  and  _217
REMARK   88  A    between atoms: _217  and  _218
REMARK   89  A    between atoms: _217  and  _220
REMARK   90  A    between atoms: _220  and  _221
REMARK   91  A    between atoms: _221  and  _222
REMARK   92  A    between atoms: _224  and  _226
REMARK   93  A    between atoms: _226  and  _227
REMARK   94  A    between atoms: _226  and  _229
REMARK   95  A    between atoms: _229  and  _230
REMARK   96  A    between atoms: _230  and  _231
REMARK   97  A    between atoms: _231  and  _232
REMARK   98  A    between atoms: _232  and  _233
REMARK   99  A    between atoms: _237  and  _239
REMARK  100  A    between atoms: _239  and  _240
REMARK  101  A    between atoms: _239  and  _242
REMARK  102  A    between atoms: _242  and  _243
REMARK  103  A    between atoms: _248  and  _250
REMARK  104  A    between atoms: _250  and  _251
REMARK  105  A    between atoms: _253  and  _255
REMARK  106  A    between atoms: _255  and  _256
REMARK  107  A    between atoms: _255  and  _258
REMARK  108  A    between atoms: _258  and  _259
REMARK  109  A    between atoms: _262  and  _264
REMARK  110  A    between atoms: _264  and  _265
REMARK  111  A    between atoms: _264  and  _267
REMARK  112  A    between atoms: _267  and  _268
REMARK  113  A    between atoms: _271  and  _273
REMARK  114  A    between atoms: _273  and  _274
REMARK  115  A    between atoms: _273  and  _276
REMARK  116  A    between atoms: _276  and  _277
REMARK  117  A    between atoms: _277  and  _278
REMARK  118  A    between atoms: _278  and  _279
REMARK  119  A    between atoms: _288  and  _290
REMARK  120  A    between atoms: _290  and  _291
REMARK  121  A    between atoms: _290  and  _293
REMARK  122  A    between atoms: _293  and  _294
REMARK  123  A    between atoms: _299  and  _301
REMARK  124  A    between atoms: _301  and  _302
REMARK  125  A    between atoms: _301  and  _304
REMARK  126  A    between atoms: _304  and  _305
REMARK  127  A    between atoms: _311  and  _313
REMARK  128  A    between atoms: _313  and  _314
REMARK  129  A    between atoms: _313  and  _316
REMARK  130  A    between atoms: _316  and  _317
REMARK  131  A    between atoms: _322  and  _324
REMARK  132  A    between atoms: _324  and  _325
REMARK  133  A    between atoms: _324  and  _327
REMARK  134  A    between atoms: _327  and  _328
REMARK  135  A    between atoms: _333  and  _335
REMARK  136  A    between atoms: _335  and  _336
REMARK  137  A    between atoms: _335  and  _338
REMARK  138  A    between atoms: _338  and  _339
REMARK  139  A    between atoms: _344  and  _346
REMARK  140  A    between atoms: _346  and  _347
REMARK  141  A    between atoms: _346  and  _349
REMARK  142  A    between atoms: _349  and  _350
REMARK  143  A    between atoms: _353  and  _355
REMARK  144  A    between atoms: _355  and  _356
REMARK  145  A    between atoms: _359  and  _361
REMARK  146  A    between atoms: _361  and  _362
REMARK  147  A    between atoms: _365  and  _367
REMARK  148  A    between atoms: _367  and  _368
REMARK  149  A    between atoms: _367  and  _370
REMARK  150  A    between atoms: _370  and  _371
REMARK  151  A    between atoms: _371  and  _372
REMARK  152  A    between atoms: _372  and  _373
REMARK  153  A    between atoms: _382  and  _384
REMARK  154  A    between atoms: _384  and  _385
REMARK  155  A    between atoms: _384  and  _387
REMARK  156  A    between atoms: _387  and  _388
REMARK  157  A    between atoms: _393  and  _395
REMARK  158  A    between atoms: _395  and  _396
REMARK  159  A    between atoms: _395  and  _398
REMARK  160  A    between atoms: _400  and  _402
REMARK  161  A    between atoms: _402  and  _403
REMARK  162  A    between atoms: _402  and  _405
REMARK  163  A    between atoms: _405  and  _406
REMARK  164  A    between atoms: _406  and  _407
REMARK  165  A    between atoms: _409  and  _411
REMARK  166  A    between atoms: _411  and  _412
REMARK  167  A    between atoms: _411  and  _414
REMARK  168  A    between atoms: _414  and  _415
REMARK  169  A    between atoms: _418  and  _420
REMARK  170  A    between atoms: _420  and  _421
REMARK  171  A    between atoms: _420  and  _423
REMARK  172  A    between atoms: _423  and  _424
REMARK  173  A    between atoms: _427  and  _429
REMARK  174  A    between atoms: _429  and  _430
REMARK  175  A    between atoms: _429  and  _432
REMARK  176  A    between atoms: _432  and  _433
REMARK  177  A    between atoms: _433  and  _434
REMARK  178  A    between atoms: _434  and  _435
REMARK  179  A    between atoms: _435  and  _436
REMARK  180  A    between atoms: _440  and  _442
REMARK  181  A    between atoms: _442  and  _443
REMARK  182  A    between atoms: _442  and  _445
REMARK  183  A    between atoms: _448  and  _450
REMARK  184  A    between atoms: _450  and  _451
REMARK  185  A    between atoms: _454  and  _456
REMARK  186  A    between atoms: _456  and  _457
REMARK  187  A    between atoms: _456  and  _459
REMARK  188  A    between atoms: _459  and  _460
REMARK  189  A    between atoms: _463  and  _465
REMARK  190  A    between atoms: _465  and  _466
REMARK  191  A    between atoms: _465  and  _468
REMARK  192  A    between atoms: _468  and  _469
REMARK  193  A    between atoms: _475  and  _477
REMARK  194  A    between atoms: _477  and  _478
REMARK  195  A    between atoms: _477  and  _480
REMARK  196  A    between atoms: _480  and  _481
REMARK  197  A    between atoms: _484  and  _486
REMARK  198  A    between atoms: _486  and  _487
REMARK  199  A    between atoms: _490  and  _492
REMARK  200  A    between atoms: _492  and  _493
REMARK  201  A    between atoms: _492  and  _495
REMARK  202  A    between atoms: _495  and  _496
REMARK  203  A    between atoms: _496  and  _497
REMARK  204  A    between atoms: _497  and  _498
REMARK  205  A    between atoms: _507  and  _509
REMARK  206  A    between atoms: _509  and  _510
REMARK  207  A    between atoms: _509  and  _512
REMARK  208  A    between atoms: _512  and  _513
REMARK  209  A    between atoms: _516  and  _518
REMARK  210  A    between atoms: _518  and  _519
REMARK  211  A    between atoms: _518  and  _521
REMARK  212  A    between atoms: _521  and  _522
REMARK  213  A    between atoms: _522  and  _523
REMARK  214  A    between atoms: _525  and  _527
REMARK  215  A    between atoms: _527  and  _528
REMARK  216  A    between atoms: _527  and  _530
REMARK  217  A    between atoms: _530  and  _531
REMARK  218  A    between atoms: _536  and  _537
REMARK  219  A    between atoms: _539  and  _541
REMARK  220  A    between atoms: _541  and  _542
REMARK  221  A    between atoms: _541  and  _544
REMARK  222  A    between atoms: _544  and  _545
REMARK  223  A    between atoms: _548  and  _550
REMARK  224  A    between atoms: _550  and  _551
REMARK  225  A    between atoms: _550  and  _553
REMARK  226  A    between atoms: _553  and  _554
REMARK  227  A    between atoms: _559  and  _560
REMARK                            x       y       z     vdW  Elec       q    Type
REMARK                         _______ _______ _______ _____ _____    ______ ____
ROOT
ATOM      1  O   HOH     1      17.164  79.728   2.986  0.00  0.00    +0.000 OA
ENDROOT
TORSDOF 0
REMARK  Name = ../refined-set-2016/2wgj/2wgj_pocket.pdb
REMARK  227 active torsions:
REMARK  status: ('A' for Active; 'I' for Inactive)
REMARK    1  A    between atoms: _1  and  _3
REMARK    2  A    between atoms: _3  and  _4
REMARK    3  A    between atoms: _3  and  _6
REMARK    4  A    between atoms: _9  and  _11
REMARK    5  A    between atoms: _11  and  _12
REMARK    6  A    between atoms: _11  and  _14
REMARK    7  A    between atoms: _14  and  _15
REMARK    8  A    between atoms: _18  and  _20
REMARK    9  A    between atoms: _20  and  _21
REMARK   10  A    between atoms: _23  and  _25
REMARK   11  A    between atoms: _25  and  _26
REMARK   12  A    between atoms: _25  and  _28
REMARK   13  A    between atoms: _28  and  _29
REMARK   14  A    between atoms: _29  and  _30
REMARK   15  A    between atoms: _30  and  _31
REMARK   16  A    between atoms: _40  and  _42
REMARK   17  A    between atoms: _42  and  _43
REMARK   18  A    between atoms: _45  and  _47
REMARK   19  A    between atoms: _47  and  _48
REMARK   20  A    between atoms: _50  and  _52
REMARK   21  A    between atoms: _52  and  _53
REMARK   22  A    between atoms: _52  and  _55
REMARK   23  A    between atoms: _57  and  _59
REMARK   24  A    between atoms: _59  and  _60
REMARK   25  A    between atoms: _59  and  _62
REMARK   26  A    between atoms: _65  and  _67
REMARK   27  A    between atoms: _67  and  _68
REMARK   28  A    between atoms: _67  and  _70
REMARK   29  A    between atoms: _70  and  _71
REMARK   30  A    between atoms: _76  and  _77
REMARK   31  A    between atoms: _79  and  _81
REMARK   32  A    between atoms: _81  and  _82
REMARK   33  A    between atoms: _81  and  _84
REMARK   34  A    between atoms: _84  and  _85
REMARK   35  A    between atoms: _90  and  _92
REMARK   36  A    between atoms: _92  and  _93
REMARK   37  A    between atoms: _92  and  _95
REMARK   38  A    between atoms: _95  and  _96
REMARK   39  A    between atoms: _101  and  _103
REMARK   40  A    between atoms: _103  and  _104
REMARK   41  A    between atoms: _103  and  _106
REMARK   42  A    between atoms: _108  and  _110
REMARK   43  A    between atoms: _110  and  _111
REMARK   44  A    between atoms: _114  and  _116
REMARK   45  A    between atoms: _116  and  _117
REMARK   46  A    between atoms: _116  and  _119
REMARK   47  A    between atoms: _122  and  _124
REMARK   48  A    between atoms: _124  and  _125
REMARK   49  A    between atoms: _124  and  _127
REMARK   50  A    between atoms: _127  and  _128
REMARK   51  A    between atoms: _128  and  _129
REMARK   52  A    between atoms: _129  and  _130
REMARK   53  A    between atoms: _130  and  _131
REMARK   54  A    between atoms: _135  and  _137
REMARK   55  A    between atoms: _137  and  _138
REMARK   56  A    between atoms: _137  and  _140
REMARK   57  A    between atoms: _140  and  _141
REMARK   58  A    between atoms: _143  and  _145
REMARK   59  A    between atoms: _145  and  _146
REMARK   60  A    between atoms: _145  and  _148
REMARK   61  A    between atoms: _148  and  _149
REMARK   62  A    between atoms: _149  and  _150
REMARK   63  A    between atoms: _152  and  _154
REMARK   64  A    between atoms: _154  and  _155
REMARK   65  A    between atoms: _154  and  _157
REMARK   66  A    between atoms: _157  and  _158
REMARK   67  A    between atoms: _161  and  _163
REMARK   68  A    between atoms: _163  and  _164
REMARK   69  A    between atoms: _163  and  _166
REMARK   70  A    between atoms: _166  and  _167
REMARK   71  A    between atoms: _169  and  _171
REMARK   72  A    between atoms: _171  and  _172
REMARK   73  A    between atoms: _171  and  _174
REMARK   74  A    between atoms: _177  and  _179
REMARK   75  A    between atoms: _179  and  _180
REMARK   76  A    between atoms: _179  and  _182
REMARK   77  A    between atoms: _185  and  _187
REMARK   78  A    between atoms: _187  and  _188
REMARK   79  A    between atoms: _187  and  _190
REMARK   80  A    between atoms: _190  and  _191
REMARK   81  A    between atoms: _195  and  _196
REMARK   82  A    between atoms: _201  and  _203
REMARK   83  A    between atoms: _203  and  _204
REMARK   84  A    between atoms: _203  and  _206
REMARK   85  A    between atoms: _206  and  _207
REMARK   86  A    between atoms: _212  and  _213
REMARK   87  A    between atoms: _215  and  _217
REMARK   88  A    between atoms: _217  and  _218
REMARK   89  A    between atoms: _217  and  _220
REMARK   90  A    between atoms: _220  and  _221
REMARK   91  A    between atoms: _221  and  _222
REMARK   92  A    between atoms: _224  and  _226
REMARK   93  A    between atoms: _226  and  _227
REMARK   94  A    between atoms: _226  and  _229
REMARK   95  A    between atoms: _229  and  _230
REMARK   96  A    between atoms: _230  and  _231
REMARK   97  A    between atoms: _231  and  _232
REMARK   98  A    between atoms: _232  and  _233
REMARK   99  A    between atoms: _237  and  _239
REMARK  100  A    between atoms: _239  and  _240
REMARK  101  A    between atoms: _239  and  _242
REMARK  102  A    between atoms: _242  and  _243
REMARK  103  A    between atoms: _248  and  _250
REMARK  104  A    between atoms: _250  and  _251
REMARK  105  A    between atoms: _253  and  _255
REMARK  106  A    between atoms: _255  and  _256
REMARK  107  A    between atoms: _255  and  _258
REMARK  108  A    between atoms: _258  and  _259
REMARK  109  A    between atoms: _262  and  _264
REMARK  110  A    between atoms: _264  and  _265
REMARK  111  A    between atoms: _264  and  _267
REMARK  112  A    between atoms: _267  and  _268
REMARK  113  A    between atoms: _271  and  _273
REMARK  114  A    between atoms: _273  and  _274
REMARK  115  A    between atoms: _273  and  _276
REMARK  116  A    between atoms: _276  and  _277
REMARK  117  A    between atoms: _277  and  _278
REMARK  118  A    between atoms: _278  and  _279
REMARK  119  A    between atoms: _288  and  _290
REMARK  120  A    between atoms: _290  and  _291
REMARK  121  A    between atoms: _290  and  _293
REMARK  122  A    between atoms: _293  and  _294
REMARK  123  A    between atoms: _299  and  _301
REMARK  124  A    between atoms: _301  and  _302
REMARK  125  A    between atoms: _301  and  _304
REMARK  126  A    between atoms: _304  and  _305
REMARK  127  A    between atoms: _311  and  _313
REMARK  128  A    between atoms: _313  and  _314
REMARK  129  A    between atoms: _313  and  _316
REMARK  130  A    between atoms: _316  and  _317
REMARK  131  A    between atoms: _322  and  _324
REMARK  132  A    between atoms: _324  and  _325
REMARK  133  A    between atoms: _324  and  _327
REMARK  134  A    between atoms: _327  and  _328
REMARK  135  A    between atoms: _333  and  _335
REMARK  136  A    between atoms: _335  and  _336
REMARK  137  A    between atoms: _335  and  _338
REMARK  138  A    between atoms: _338  and  _339
REMARK  139  A    between atoms: _344  and  _346
REMARK  140  A    between atoms: _346  and  _347
REMARK  141  A    between atoms: _346  and  _349
REMARK  142  A    between atoms: _349  and  _350
REMARK  143  A    between atoms: _353  and  _355
REMARK  144  A    between atoms: _355  and  _356
REMARK  145  A    between atoms: _359  and  _361
REMARK  146  A    between atoms: _361  and  _362
REMARK  147  A    between atoms: _365  and  _367
REMARK  148  A    between atoms: _367  and  _368
REMARK  149  A    between atoms: _367  and  _370
REMARK  150  A    between atoms: _370  and  _371
REMARK  151  A    between atoms: _371  and  _372
REMARK  152  A    between atoms: _372  and  _373
REMARK  153  A    between atoms: _382  and  _384
REMARK  154  A    between atoms: _384  and  _385
REMARK  155  A    between atoms: _384  and  _387
REMARK  156  A    between atoms: _387  and  _388
REMARK  157  A    between atoms: _393  and  _395
REMARK  158  A    between atoms: _395  and  _396
REMARK  159  A    between atoms: _395  and  _398
REMARK  160  A    between atoms: _400  and  _402
REMARK  161  A    between atoms: _402  and  _403
REMARK  162  A    between atoms: _402  and  _405
REMARK  163  A    between atoms: _405  and  _406
REMARK  164  A    between atoms: _406  and  _407
REMARK  165  A    between atoms: _409  and  _411
REMARK  166  A    between atoms: _411  and  _412
REMARK  167  A    between atoms: _411  and  _414
REMARK  168  A    between atoms: _414  and  _415
REMARK  169  A    between atoms: _418  and  _420
REMARK  170  A    between atoms: _420  and  _421
REMARK  171  A    between atoms: _420  and  _423
REMARK  172  A    between atoms: _423  and  _424
REMARK  173  A    between atoms: _427  and  _429
REMARK  174  A    between atoms: _429  and  _430
REMARK  175  A    between atoms: _429  and  _432
REMARK  176  A    between atoms: _432  and  _433
REMARK  177  A    between atoms: _433  and  _434
REMARK  178  A    between atoms: _434  and  _435
REMARK  179  A    between atoms: _435  and  _436
REMARK  180  A    between atoms: _440  and  _442
REMARK  181  A    between atoms: _442  and  _443
REMARK  182  A    between atoms: _442  and  _445
REMARK  183  A    between atoms: _448  and  _450
REMARK  184  A    between atoms: _450  and  _451
REMARK  185  A    between atoms: _454  and  _456
REMARK  186  A    between atoms: _456  and  _457
REMARK  187  A    between atoms: _456  and  _459
REMARK  188  A    between atoms: _459  and  _460
REMARK  189  A    between atoms: _463  and  _465
REMARK  190  A    between atoms: _465  and  _466
REMARK  191  A    between atoms: _465  and  _468
REMARK  192  A    between atoms: _468  and  _469
REMARK  193  A    between atoms: _475  and  _477
REMARK  194  A    between atoms: _477  and  _478
REMARK  195  A    between atoms: _477  and  _480
REMARK  196  A    between atoms: _480  and  _481
REMARK  197  A    between atoms: _484  and  _486
REMARK  198  A    between atoms: _486  and  _487
REMARK  199  A    between atoms: _490  and  _492
REMARK  200  A    between atoms: _492  and  _493
REMARK  201  A    between atoms: _492  and  _495
REMARK  202  A    between atoms: _495  and  _496
REMARK  203  A    between atoms: _496  and  _497
REMARK  204  A    between atoms: _497  and  _498
REMARK  205  A    between atoms: _507  and  _509
REMARK  206  A    between atoms: _509  and  _510
REMARK  207  A    between atoms: _509  and  _512
REMARK  208  A    between atoms: _512  and  _513
REMARK  209  A    between atoms: _516  and  _518
REMARK  210  A    between atoms: _518  and  _519
REMARK  211  A    between atoms: _518  and  _521
REMARK  212  A    between atoms: _521  and  _522
REMARK  213  A    between atoms: _522  and  _523
REMARK  214  A    between atoms: _525  and  _527
REMARK  215  A    between atoms: _527  and  _528
REMARK  216  A    between atoms: _527  and  _530
REMARK  217  A    between atoms: _530  and  _531
REMARK  218  A    between atoms: _536  and  _537
REMARK  219  A    between atoms: _539  and  _541
REMARK  220  A    between atoms: _541  and  _542
REMARK  221  A    between atoms: _541  and  _544
REMARK  222  A    between atoms: _544  and  _545
REMARK  223  A    between atoms: _548  and  _550
REMARK  224  A    between atoms: _550  and  _551
REMARK  225  A    between atoms: _550  and  _553
REMARK  226  A    between atoms: _553  and  _554
REMARK  227  A    between atoms: _559  and  _560
REMARK                            x       y       z     vdW  Elec       q    Type
REMARK                         _______ _______ _______ _____ _____    ______ ____
ROOT
ATOM      1  O   HOH     1      12.554  88.431   9.769  0.00  0.00    +0.000 OA
ENDROOT
TORSDOF 0
REMARK  Name = ../refined-set-2016/2wgj/2wgj_pocket.pdb
REMARK  227 active torsions:
REMARK  status: ('A' for Active; 'I' for Inactive)
REMARK    1  A    between atoms: _1  and  _3
REMARK    2  A    between atoms: _3  and  _4
REMARK    3  A    between atoms: _3  and  _6
REMARK    4  A    between atoms: _9  and  _11
REMARK    5  A    between atoms: _11  and  _12
REMARK    6  A    between atoms: _11  and  _14
REMARK    7  A    between atoms: _14  and  _15
REMARK    8  A    between atoms: _18  and  _20
REMARK    9  A    between atoms: _20  and  _21
REMARK   10  A    between atoms: _23  and  _25
REMARK   11  A    between atoms: _25  and  _26
REMARK   12  A    between atoms: _25  and  _28
REMARK   13  A    between atoms: _28  and  _29
REMARK   14  A    between atoms: _29  and  _30
REMARK   15  A    between atoms: _30  and  _31
REMARK   16  A    between atoms: _40  and  _42
REMARK   17  A    between atoms: _42  and  _43
REMARK   18  A    between atoms: _45  and  _47
REMARK   19  A    between atoms: _47  and  _48
REMARK   20  A    between atoms: _50  and  _52
REMARK   21  A    between atoms: _52  and  _53
REMARK   22  A    between atoms: _52  and  _55
REMARK   23  A    between atoms: _57  and  _59
REMARK   24  A    between atoms: _59  and  _60
REMARK   25  A    between atoms: _59  and  _62
REMARK   26  A    between atoms: _65  and  _67
REMARK   27  A    between atoms: _67  and  _68
REMARK   28  A    between atoms: _67  and  _70
REMARK   29  A    between atoms: _70  and  _71
REMARK   30  A    between atoms: _76  and  _77
REMARK   31  A    between atoms: _79  and  _81
REMARK   32  A    between atoms: _81  and  _82
REMARK   33  A    between atoms: _81  and  _84
REMARK   34  A    between atoms: _84  and  _85
REMARK   35  A    between atoms: _90  and  _92
REMARK   36  A    between atoms: _92  and  _93
REMARK   37  A    between atoms: _92  and  _95
REMARK   38  A    between atoms: _95  and  _96
REMARK   39  A    between atoms: _101  and  _103
REMARK   40  A    between atoms: _103  and  _104
REMARK   41  A    between atoms: _103  and  _106
REMARK   42  A    between atoms: _108  and  _110
REMARK   43  A    between atoms: _110  and  _111
REMARK   44  A    between atoms: _114  and  _116
REMARK   45  A    between atoms: _116  and  _117
REMARK   46  A    between atoms: _116  and  _119
REMARK   47  A    between atoms: _122  and  _124
REMARK   48  A    between atoms: _124  and  _125
REMARK   49  A    between atoms: _124  and  _127
REMARK   50  A    between atoms: _127  and  _128
REMARK   51  A    between atoms: _128  and  _129
REMARK   52  A    between atoms: _129  and  _130
REMARK   53  A    between atoms: _130  and  _131
REMARK   54  A    between atoms: _135  and  _137
REMARK   55  A    between atoms: _137  and  _138
REMARK   56  A    between atoms: _137  and  _140
REMARK   57  A    between atoms: _140  and  _141
REMARK   58  A    between atoms: _143  and  _145
REMARK   59  A    between atoms: _145  and  _146
REMARK   60  A    between atoms: _145  and  _148
REMARK   61  A    between atoms: _148  and  _149
REMARK   62  A    between atoms: _149  and  _150
REMARK   63  A    between atoms: _152  and  _154
REMARK   64  A    between atoms: _154  and  _155
REMARK   65  A    between atoms: _154  and  _157
REMARK   66  A    between atoms: _157  and  _158
REMARK   67  A    between atoms: _161  and  _163
REMARK   68  A    between atoms: _163  and  _164
REMARK   69  A    between atoms: _163  and  _166
REMARK   70  A    between atoms: _166  and  _167
REMARK   71  A    between atoms: _169  and  _171
REMARK   72  A    between atoms: _171  and  _172
REMARK   73  A    between atoms: _171  and  _174
REMARK   74  A    between atoms: _177  and  _179
REMARK   75  A    between atoms: _179  and  _180
REMARK   76  A    between atoms: _179  and  _182
REMARK   77  A    between atoms: _185  and  _187
REMARK   78  A    between atoms: _187  and  _188
REMARK   79  A    between atoms: _187  and  _190
REMARK   80  A    between atoms: _190  and  _191
REMARK   81  A    between atoms: _195  and  _196
REMARK   82  A    between atoms: _201  and  _203
REMARK   83  A    between atoms: _203  and  _204
REMARK   84  A    between atoms: _203  and  _206
REMARK   85  A    between atoms: _206  and  _207
REMARK   86  A    between atoms: _212  and  _213
REMARK   87  A    between atoms: _215  and  _217
REMARK   88  A    between atoms: _217  and  _218
REMARK   89  A    between atoms: _217  and  _220
REMARK   90  A    between atoms: _220  and  _221
REMARK   91  A    between atoms: _221  and  _222
REMARK   92  A    between atoms: _224  and  _226
REMARK   93  A    between atoms: _226  and  _227
REMARK   94  A    between atoms: _226  and  _229
REMARK   95  A    between atoms: _229  and  _230
REMARK   96  A    between atoms: _230  and  _231
REMARK   97  A    between atoms: _231  and  _232
REMARK   98  A    between atoms: _232  and  _233
REMARK   99  A    between atoms: _237  and  _239
REMARK  100  A    between atoms: _239  and  _240
REMARK  101  A    between atoms: _239  and  _242
REMARK  102  A    between atoms: _242  and  _243
REMARK  103  A    between atoms: _248  and  _250
REMARK  104  A    between atoms: _250  and  _251
REMARK  105  A    between atoms: _253  and  _255
REMARK  106  A    between atoms: _255  and  _256
REMARK  107  A    between atoms: _255  and  _258
REMARK  108  A    between atoms: _258  and  _259
REMARK  109  A    between atoms: _262  and  _264
REMARK  110  A    between atoms: _264  and  _265
REMARK  111  A    between atoms: _264  and  _267
REMARK  112  A    between atoms: _267  and  _268
REMARK  113  A    between atoms: _271  and  _273
REMARK  114  A    between atoms: _273  and  _274
REMARK  115  A    between atoms: _273  and  _276
REMARK  116  A    between atoms: _276  and  _277
REMARK  117  A    between atoms: _277  and  _278
REMARK  118  A    between atoms: _278  and  _279
REMARK  119  A    between atoms: _288  and  _290
REMARK  120  A    between atoms: _290  and  _291
REMARK  121  A    between atoms: _290  and  _293
REMARK  122  A    between atoms: _293  and  _294
REMARK  123  A    between atoms: _299  and  _301
REMARK  124  A    between atoms: _301  and  _302
REMARK  125  A    between atoms: _301  and  _304
REMARK  126  A    between atoms: _304  and  _305
REMARK  127  A    between atoms: _311  and  _313
REMARK  128  A    between atoms: _313  and  _314
REMARK  129  A    between atoms: _313  and  _316
REMARK  130  A    between atoms: _316  and  _317
REMARK  131  A    between atoms: _322  and  _324
REMARK  132  A    between atoms: _324  and  _325
REMARK  133  A    between atoms: _324  and  _327
REMARK  134  A    between atoms: _327  and  _328
REMARK  135  A    between atoms: _333  and  _335
REMARK  136  A    between atoms: _335  and  _336
REMARK  137  A    between atoms: _335  and  _338
REMARK  138  A    between atoms: _338  and  _339
REMARK  139  A    between atoms: _344  and  _346
REMARK  140  A    between atoms: _346  and  _347
REMARK  141  A    between atoms: _346  and  _349
REMARK  142  A    between atoms: _349  and  _350
REMARK  143  A    between atoms: _353  and  _355
REMARK  144  A    between atoms: _355  and  _356
REMARK  145  A    between atoms: _359  and  _361
REMARK  146  A    between atoms: _361  and  _362
REMARK  147  A    between atoms: _365  and  _367
REMARK  148  A    between atoms: _367  and  _368
REMARK  149  A    between atoms: _367  and  _370
REMARK  150  A    between atoms: _370  and  _371
REMARK  151  A    between atoms: _371  and  _372
REMARK  152  A    between atoms: _372  and  _373
REMARK  153  A    between atoms: _382  and  _384
REMARK  154  A    between atoms: _384  and  _385
REMARK  155  A    between atoms: _384  and  _387
REMARK  156  A    between atoms: _387  and  _388
REMARK  157  A    between atoms: _393  and  _395
REMARK  158  A    between atoms: _395  and  _396
REMARK  159  A    between atoms: _395  and  _398
REMARK  160  A    between atoms: _400  and  _402
REMARK  161  A    between atoms: _402  and  _403
REMARK  162  A    between atoms: _402  and  _405
REMARK  163  A    between atoms: _405  and  _406
REMARK  164  A    between atoms: _406  and  _407
REMARK  165  A    between atoms: _409  and  _411
REMARK  166  A    between atoms: _411  and  _412
REMARK  167  A    between atoms: _411  and  _414
REMARK  168  A    between atoms: _414  and  _415
REMARK  169  A    between atoms: _418  and  _420
REMARK  170  A    between atoms: _420  and  _421
REMARK  171  A    between atoms: _420  and  _423
REMARK  172  A    between atoms: _423  and  _424
REMARK  173  A    between atoms: _427  and  _429
REMARK  174  A    between atoms: _429  and  _430
REMARK  175  A    between atoms: _429  and  _432
REMARK  176  A    between atoms: _432  and  _433
REMARK  177  A    between atoms: _433  and  _434
REMARK  178  A    between atoms: _434  and  _435
REMARK  179  A    between atoms: _435  and  _436
REMARK  180  A    between atoms: _440  and  _442
REMARK  181  A    between atoms: _442  and  _443
REMARK  182  A    between atoms: _442  and  _445
REMARK  183  A    between atoms: _448  and  _450
REMARK  184  A    between atoms: _450  and  _451
REMARK  185  A    between atoms: _454  and  _456
REMARK  186  A    between atoms: _456  and  _457
REMARK  187  A    between atoms: _456  and  _459
REMARK  188  A    between atoms: _459  and  _460
REMARK  189  A    between atoms: _463  and  _465
REMARK  190  A    between atoms: _465  and  _466
REMARK  191  A    between atoms: _465  and  _468
REMARK  192  A    between atoms: _468  and  _469
REMARK  193  A    between atoms: _475  and  _477
REMARK  194  A    between atoms: _477  and  _478
REMARK  195  A    between atoms: _477  and  _480
REMARK  196  A    between atoms: _480  and  _481
REMARK  197  A    between atoms: _484  and  _486
REMARK  198  A    between atoms: _486  and  _487
REMARK  199  A    between atoms: _490  and  _492
REMARK  200  A    between atoms: _492  and  _493
REMARK  201  A    between atoms: _492  and  _495
REMARK  202  A    between atoms: _495  and  _496
REMARK  203  A    between atoms: _496  and  _497
REMARK  204  A    between atoms: _497  and  _498
REMARK  205  A    between atoms: _507  and  _509
REMARK  206  A    between atoms: _509  and  _510
REMARK  207  A    between atoms: _509  and  _512
REMARK  208  A    between atoms: _512  and  _513
REMARK  209  A    between atoms: _516  and  _518
REMARK  210  A    between atoms: _518  and  _519
REMARK  211  A    between atoms: _518  and  _521
REMARK  212  A    between atoms: _521  and  _522
REMARK  213  A    between atoms: _522  and  _523
REMARK  214  A    between atoms: _525  and  _527
REMARK  215  A    between atoms: _527  and  _528
REMARK  216  A    between atoms: _527  and  _530
REMARK  217  A    between atoms: _530  and  _531
REMARK  218  A    between atoms: _536  and  _537
REMARK  219  A    between atoms: _539  and  _541
REMARK  220  A    between atoms: _541  and  _542
REMARK  221  A    between atoms: _541  and  _544
REMARK  222  A    between atoms: _544  and  _545
REMARK  223  A    between atoms: _548  and  _550
REMARK  224  A    between atoms: _550  and  _551
REMARK  225  A    between atoms: _550  and  _553
REMARK  226  A    between atoms: _553  and  _554
REMARK  227  A    between atoms: _559  and  _560
REMARK                            x       y       z     vdW  Elec       q    Type
REMARK                         _______ _______ _______ _____ _____    ______ ____
ROOT
ATOM      1  O   HOH     1      12.315  79.601   4.821  0.00  0.00    +0.000 OA
ENDROOT
TORSDOF 0
