REMARK  Name = ../refined-set-2016/4b6p/4b6p_pocket.pdb
REMARK  224 active torsions:
REMARK  status: ('A' for Active; 'I' for Inactive)
REMARK    1  A    between atoms: _1  and  _3
REMARK    2  A    between atoms: _3  and  _4
REMARK    3  A    between atoms: _3  and  _6
REMARK    4  A    between atoms: _6  and  _7
REMARK    5  A    between atoms: _12  and  _14
REMARK    6  A    between atoms: _14  and  _15
REMARK    7  A    between atoms: _18  and  _19
REMARK    8  A    between atoms: _24  and  _26
REMARK    9  A    between atoms: _26  and  _27
REMARK   10  A    between atoms: _26  and  _29
REMARK   11  A    between atoms: _29  and  _30
REMARK   12  A    between atoms: _35  and  _37
REMARK   13  A    between atoms: _37  and  _38
REMARK   14  A    between atoms: _37  and  _40
REMARK   15  A    between atoms: _40  and  _41
REMARK   16  A    between atoms: _44  and  _46
REMARK   17  A    between atoms: _46  and  _47
REMARK   18  A    between atoms: _49  and  _51
REMARK   19  A    between atoms: _51  and  _52
REMARK   20  A    between atoms: _51  and  _54
REMARK   21  A    between atoms: _54  and  _55
REMARK   22  A    between atoms: _55  and  _56
REMARK   23  A    between atoms: _56  and  _57
REMARK   24  A    between atoms: _66  and  _68
REMARK   25  A    between atoms: _68  and  _69
REMARK   26  A    between atoms: _68  and  _71
REMARK   27  A    between atoms: _71  and  _72
REMARK   28  A    between atoms: _75  and  _77
REMARK   29  A    between atoms: _77  and  _78
REMARK   30  A    between atoms: _80  and  _82
REMARK   31  A    between atoms: _82  and  _83
REMARK   32  A    between atoms: _82  and  _85
REMARK   33  A    between atoms: _85  and  _86
REMARK   34  A    between atoms: _86  and  _87
REMARK   35  A    between atoms: _87  and  _88
REMARK   36  A    between atoms: _97  and  _99
REMARK   37  A    between atoms: _99  and  _100
REMARK   38  A    between atoms: _99  and  _102
REMARK   39  A    between atoms: _102  and  _103
REMARK   40  A    between atoms: _103  and  _104
REMARK   41  A    between atoms: _104  and  _105
REMARK   42  A    between atoms: _114  and  _116
REMARK   43  A    between atoms: _116  and  _117
REMARK   44  A    between atoms: _116  and  _119
REMARK   45  A    between atoms: _119  and  _120
REMARK   46  A    between atoms: _120  and  _121
REMARK   47  A    between atoms: _124  and  _126
REMARK   48  A    between atoms: _126  and  _127
REMARK   49  A    between atoms: _126  and  _129
REMARK   50  A    between atoms: _132  and  _134
REMARK   51  A    between atoms: _134  and  _135
REMARK   52  A    between atoms: _134  and  _137
REMARK   53  A    between atoms: _137  and  _138
REMARK   54  A    between atoms: _143  and  _144
REMARK   55  A    between atoms: _146  and  _148
REMARK   56  A    between atoms: _148  and  _149
REMARK   57  A    between atoms: _151  and  _153
REMARK   58  A    between atoms: _153  and  _154
REMARK   59  A    between atoms: _153  and  _156
REMARK   60  A    between atoms: _156  and  _157
REMARK   61  A    between atoms: _160  and  _162
REMARK   62  A    between atoms: _162  and  _163
REMARK   63  A    between atoms: _162  and  _165
REMARK   64  A    between atoms: _165  and  _166
REMARK   65  A    between atoms: _171  and  _173
REMARK   66  A    between atoms: _173  and  _174
REMARK   67  A    between atoms: _173  and  _176
REMARK   68  A    between atoms: _176  and  _177
REMARK   69  A    between atoms: _180  and  _182
REMARK   70  A    between atoms: _182  and  _183
REMARK   71  A    between atoms: _182  and  _185
REMARK   72  A    between atoms: _185  and  _186
REMARK   73  A    between atoms: _186  and  _187
REMARK   74  A    between atoms: _192  and  _194
REMARK   75  A    between atoms: _194  and  _195
REMARK   76  A    between atoms: _194  and  _197
REMARK   77  A    between atoms: _197  and  _198
REMARK   78  A    between atoms: _201  and  _203
REMARK   79  A    between atoms: _203  and  _204
REMARK   80  A    between atoms: _203  and  _206
REMARK   81  A    between atoms: _206  and  _207
REMARK   82  A    between atoms: _210  and  _212
REMARK   83  A    between atoms: _212  and  _213
REMARK   84  A    between atoms: _212  and  _215
REMARK   85  A    between atoms: _215  and  _216
REMARK   86  A    between atoms: _221  and  _223
REMARK   87  A    between atoms: _223  and  _224
REMARK   88  A    between atoms: _227  and  _229
REMARK   89  A    between atoms: _229  and  _230
REMARK   90  A    between atoms: _232  and  _234
REMARK   91  A    between atoms: _234  and  _235
REMARK   92  A    between atoms: _237  and  _239
REMARK   93  A    between atoms: _239  and  _240
REMARK   94  A    between atoms: _239  and  _242
REMARK   95  A    between atoms: _242  and  _243
REMARK   96  A    between atoms: _246  and  _248
REMARK   97  A    between atoms: _248  and  _249
REMARK   98  A    between atoms: _248  and  _251
REMARK   99  A    between atoms: _251  and  _252
REMARK  100  A    between atoms: _255  and  _257
REMARK  101  A    between atoms: _257  and  _258
REMARK  102  A    between atoms: _257  and  _260
REMARK  103  A    between atoms: _260  and  _261
REMARK  104  A    between atoms: _266  and  _268
REMARK  105  A    between atoms: _268  and  _269
REMARK  106  A    between atoms: _268  and  _271
REMARK  107  A    between atoms: _271  and  _272
REMARK  108  A    between atoms: _272  and  _273
REMARK  109  A    between atoms: _276  and  _278
REMARK  110  A    between atoms: _278  and  _279
REMARK  111  A    between atoms: _278  and  _281
REMARK  112  A    between atoms: _284  and  _286
REMARK  113  A    between atoms: _286  and  _287
REMARK  114  A    between atoms: _286  and  _289
REMARK  115  A    between atoms: _289  and  _290
REMARK  116  A    between atoms: _295  and  _297
REMARK  117  A    between atoms: _297  and  _298
REMARK  118  A    between atoms: _297  and  _300
REMARK  119  A    between atoms: _300  and  _301
REMARK  120  A    between atoms: _304  and  _306
REMARK  121  A    between atoms: _306  and  _307
REMARK  122  A    between atoms: _306  and  _309
REMARK  123  A    between atoms: _309  and  _310
REMARK  124  A    between atoms: _312  and  _314
REMARK  125  A    between atoms: _314  and  _315
REMARK  126  A    between atoms: _314  and  _317
REMARK  127  A    between atoms: _317  and  _318
REMARK  128  A    between atoms: _323  and  _325
REMARK  129  A    between atoms: _325  and  _326
REMARK  130  A    between atoms: _325  and  _328
REMARK  131  A    between atoms: _331  and  _333
REMARK  132  A    between atoms: _333  and  _334
REMARK  133  A    between atoms: _333  and  _336
REMARK  134  A    between atoms: _336  and  _337
REMARK  135  A    between atoms: _342  and  _344
REMARK  136  A    between atoms: _344  and  _345
REMARK  137  A    between atoms: _344  and  _347
REMARK  138  A    between atoms: _347  and  _348
REMARK  139  A    between atoms: _348  and  _349
REMARK  140  A    between atoms: _349  and  _350
REMARK  141  A    between atoms: _359  and  _361
REMARK  142  A    between atoms: _361  and  _362
REMARK  143  A    between atoms: _361  and  _364
REMARK  144  A    between atoms: _364  and  _365
REMARK  145  A    between atoms: _365  and  _366
REMARK  146  A    between atoms: _369  and  _371
REMARK  147  A    between atoms: _371  and  _372
REMARK  148  A    between atoms: _371  and  _374
REMARK  149  A    between atoms: _374  and  _375
REMARK  150  A    between atoms: _381  and  _383
REMARK  151  A    between atoms: _383  and  _384
REMARK  152  A    between atoms: _383  and  _386
REMARK  153  A    between atoms: _386  and  _387
REMARK  154  A    between atoms: _387  and  _388
REMARK  155  A    between atoms: _388  and  _389
REMARK  156  A    between atoms: _398  and  _400
REMARK  157  A    between atoms: _400  and  _401
REMARK  158  A    between atoms: _400  and  _403
REMARK  159  A    between atoms: _403  and  _404
REMARK  160  A    between atoms: _404  and  _405
REMARK  161  A    between atoms: _405  and  _406
REMARK  162  A    between atoms: _415  and  _417
REMARK  163  A    between atoms: _417  and  _418
REMARK  164  A    between atoms: _417  and  _420
REMARK  165  A    between atoms: _420  and  _421
REMARK  166  A    between atoms: _426  and  _428
REMARK  167  A    between atoms: _428  and  _429
REMARK  168  A    between atoms: _428  and  _431
REMARK  169  A    between atoms: _431  and  _432
REMARK  170  A    between atoms: _435  and  _437
REMARK  171  A    between atoms: _437  and  _438
REMARK  172  A    between atoms: _437  and  _440
REMARK  173  A    between atoms: _443  and  _445
REMARK  174  A    between atoms: _445  and  _446
REMARK  175  A    between atoms: _448  and  _450
REMARK  176  A    between atoms: _450  and  _451
REMARK  177  A    between atoms: _450  and  _453
REMARK  178  A    between atoms: _453  and  _454
REMARK  179  A    between atoms: _457  and  _459
REMARK  180  A    between atoms: _459  and  _460
REMARK  181  A    between atoms: _462  and  _464
REMARK  182  A    between atoms: _464  and  _465
REMARK  183  A    between atoms: _464  and  _467
REMARK  184  A    between atoms: _467  and  _468
REMARK  185  A    between atoms: _471  and  _473
REMARK  186  A    between atoms: _473  and  _474
REMARK  187  A    between atoms: _473  and  _476
REMARK  188  A    between atoms: _476  and  _477
REMARK  189  A    between atoms: _482  and  _483
REMARK  190  A    between atoms: _485  and  _487
REMARK  191  A    between atoms: _487  and  _488
REMARK  192  A    between atoms: _487  and  _490
REMARK  193  A    between atoms: _490  and  _491
REMARK  194  A    between atoms: _496  and  _498
REMARK  195  A    between atoms: _498  and  _499
REMARK  196  A    between atoms: _498  and  _501
REMARK  197  A    between atoms: _504  and  _506
REMARK  198  A    between atoms: _506  and  _507
REMARK  199  A    between atoms: _510  and  _512
REMARK  200  A    between atoms: _512  and  _513
REMARK  201  A    between atoms: _512  and  _515
REMARK  202  A    between atoms: _515  and  _516
REMARK  203  A    between atoms: _519  and  _521
REMARK  204  A    between atoms: _521  and  _522
REMARK  205  A    between atoms: _521  and  _524
REMARK  206  A    between atoms: _524  and  _525
REMARK  207  A    between atoms: _525  and  _526
REMARK  208  A    between atoms: _526  and  _527
REMARK  209  A    between atoms: _536  and  _538
REMARK  210  A    between atoms: _538  and  _539
REMARK  211  A    between atoms: _538  and  _541
REMARK  212  A    between atoms: _541  and  _542
REMARK  213  A    between atoms: _545  and  _547
REMARK  214  A    between atoms: _547  and  _548
REMARK  215  A    between atoms: _551  and  _553
REMARK  216  A    between atoms: _553  and  _554
REMARK  217  A    between atoms: _553  and  _556
REMARK  218  A    between atoms: _558  and  _560
REMARK  219  A    between atoms: _560  and  _561
REMARK  220  A    between atoms: _564  and  _566
REMARK  221  A    between atoms: _566  and  _567
REMARK  222  A    between atoms: _566  and  _569
REMARK  223  A    between atoms: _569  and  _570
REMARK  224  A    between atoms: _570  and  _571
REMARK                            x       y       z     vdW  Elec       q    Type
REMARK                         _______ _______ _______ _____ _____    ______ ____
ROOT
ATOM      1  CA  ARG A   7      27.398  53.681   2.875  0.00  0.00    +0.149 C 
ENDROOT
BRANCH   1   3
ATOM      2  C   GLY A   6      25.383  53.069   1.632  0.00  0.00    +0.243 C 
ATOM      3  N   ARG A   7      26.190  52.888   2.667  0.00  0.00    -0.297 N 
ATOM      4  H   ARG A   7      25.953  52.150   3.360  0.00  0.00    +0.150 HD
ATOM      5  O   GLY A   6      25.608  53.917   0.781  0.00  0.00    -0.273 OA
BRANCH   2   6
ATOM      6  CA  GLY A   6      24.169  52.134   1.522  0.00  0.00    +0.176 C 
BRANCH   6   8
ATOM      7  C   LEU A   5      25.149  49.985   2.184  0.00  0.00    +0.241 C 
ATOM      8  N   GLY A   6      24.242  50.939   2.394  0.00  0.00    -0.295 N 
ATOM      9  H   GLY A   6      23.573  50.842   3.185  0.00  0.00    +0.150 HD
ATOM     10  O   LEU A   5      25.848  49.951   1.176  0.00  0.00    -0.273 OA
BRANCH   7  11
ATOM     11  CA  LEU A   5      25.341  48.927   3.267  0.00  0.00    +0.149 C 
BRANCH  11  14
ATOM     12  C   ASN A   4      25.502  50.296   5.281  0.00  0.00    +0.241 C 
ATOM     13  O   ASN A   4      26.556  50.805   4.889  0.00  0.00    -0.273 OA
ATOM     14  N   LEU A   5      24.843  49.371   4.573  0.00  0.00    -0.297 N 
ATOM     15  H   LEU A   5      23.966  48.962   4.954  0.00  0.00    +0.150 HD
BRANCH  12  16
ATOM     16  CA  ASN A   4      24.906  50.735   6.612  0.00  0.00    +0.158 C 
BRANCH  16  19
ATOM     17  C   PRO A   3      23.380  48.968   7.389  0.00  0.00    +0.241 C 
ATOM     18  O   PRO A   3      24.265  48.096   7.505  0.00  0.00    -0.273 OA
ATOM     19  N   ASN A   4      23.591  50.210   6.944  0.00  0.00    -0.297 N 
ATOM     20  H   ASN A   4      22.769  50.836   6.829  0.00  0.00    +0.150 HD
BRANCH  17  26
ATOM     21  C   GLY A   2      21.488  46.991   6.046  0.00  0.00    +0.246 C 
ATOM     22  N   PRO A   3      21.407  47.413   7.326  0.00  0.00    -0.272 N 
ATOM     23  CD  PRO A   3      20.751  46.692   8.428  0.00  0.00    +0.094 C 
ATOM     24  CG  PRO A   3      20.808  47.676   9.558  0.00  0.00    +0.024 C 
ATOM     25  CB  PRO A   3      21.888  48.563   9.287  0.00  0.00    +0.031 C 
ATOM     26  CA  PRO A   3      21.949  48.678   7.781  0.00  0.00    +0.152 C 
ATOM     27  O   GLY A   2      22.169  47.573   5.186  0.00  0.00    -0.273 OA
BRANCH  21  28
ATOM     28  CA  GLY A   2      20.718  45.739   5.686  0.00  0.00    +0.176 C 
BRANCH  28  30
ATOM     29  C   ASN A   1      20.687  45.265   3.274  0.00  0.00    +0.239 C 
ATOM     30  N   GLY A   2      21.255  45.117   4.472  0.00  0.00    -0.296 N 
ATOM     31  H   GLY A   2      22.114  44.536   4.548  0.00  0.00    +0.150 HD
ATOM     32  O   ASN A   1      19.675  45.957   3.075  0.00  0.00    -0.274 OA
BRANCH  29  33
ATOM     33  CA  ASN A   1      21.341  44.497   2.135  0.00  0.00    +0.154 C 
BRANCH  33  34
ATOM     34  N   ASN A   1      20.349  43.923   1.265  0.00  0.00    -0.238 NA
ATOM     35  H   ASN A   1      19.815  44.546   0.626  0.00  0.00    +0.142 HD
ENDBRANCH  33  34
BRANCH  33  36
ATOM     36  CB  ASN A   1      22.244  45.386   1.332  0.00  0.00    +0.111 C 
BRANCH  36  37
ATOM     37  CG  ASN A   1      23.124  44.603   0.398  0.00  0.00    +0.221 C 
ATOM     38  OD1 ASN A   1      23.596  43.523   0.743  0.00  0.00    -0.275 OA
ATOM     39  ND2 ASN A   1      23.385  45.161  -0.792  0.00  0.00    -0.329 N 
ATOM     40 HD21 ASN A   1      22.962  46.078  -1.040  0.00  0.00    +0.145 HD
ATOM     41 HD22 ASN A   1      24.011  44.677  -1.467  0.00  0.00    +0.145 HD
ENDBRANCH  36  37
ENDBRANCH  33  36
ENDBRANCH  29  33
ENDBRANCH  28  30
ENDBRANCH  21  28
ENDBRANCH  17  26
ENDBRANCH  16  19
BRANCH  16  42
ATOM     42  CB  ASN A   4      25.877  50.477   7.763  0.00  0.00    +0.114 C 
BRANCH  42  43
ATOM     43  CG  ASN A   4      25.490  51.229   9.016  0.00  0.00    +0.222 C 
ATOM     44  ND2 ASN A   4      25.325  50.526  10.112  0.00  0.00    -0.329 N 
ATOM     45 HD21 ASN A   4      25.071  51.001  11.001  0.00  0.00    +0.145 HD
ATOM     46 HD22 ASN A   4      25.448  49.494  10.091  0.00  0.00    +0.145 HD
ATOM     47  OD1 ASN A   4      25.356  52.450   8.988  0.00  0.00    -0.275 OA
ENDBRANCH  42  43
ENDBRANCH  16  42
ENDBRANCH  12  16
ENDBRANCH  11  14
BRANCH  11  48
ATOM     48  CB  LEU A   5      24.730  47.595   2.833  0.00  0.00    +0.029 C 
BRANCH  48  49
ATOM     49  CG  LEU A   5      25.504  46.322   3.295  0.00  0.00    +0.002 C 
ATOM     50  CD2 LEU A   5      25.600  46.216   4.814  0.00  0.00    +0.000 C 
ATOM     51  CD1 LEU A   5      26.885  46.187   2.645  0.00  0.00    +0.000 C 
ENDBRANCH  48  49
ENDBRANCH  11  48
ENDBRANCH   7  11
ENDBRANCH   6   8
ENDBRANCH   2   6
ENDBRANCH   1   3
BRANCH   1  52
ATOM     52  C   ARG A   7      28.636  53.071   2.235  0.00  0.00    +0.241 C 
ATOM     53  O   ARG A   7      29.737  53.644   2.289  0.00  0.00    -0.273 OA
ATOM     54  N   LEU A   8      28.462  51.908   1.636  0.00  0.00    -0.297 N 
ATOM     55  H   LEU A   8      27.531  51.448   1.695  0.00  0.00    +0.150 HD
BRANCH  54  56
ATOM     56  CA  LEU A   8      29.512  51.254   0.906  0.00  0.00    +0.149 C 
BRANCH  56  57
ATOM     57  C   LEU A   8      30.161  52.226  -0.094  0.00  0.00    +0.241 C 
ATOM     58  N   GLY A   9      31.488  52.181  -0.212  0.00  0.00    -0.295 N 
ATOM     59  H   GLY A   9      32.026  51.509   0.371  0.00  0.00    +0.150 HD
ATOM     60  O   LEU A   8      29.464  53.035  -0.723  0.00  0.00    -0.273 OA
BRANCH  58  61
ATOM     61  CA  GLY A   9      32.213  53.062  -1.150  0.00  0.00    +0.176 C 
BRANCH  61  62
ATOM     62  C   GLY A   9      32.376  54.490  -0.637  0.00  0.00    +0.243 C 
ATOM     63  N   ARG A  10      32.077  54.686   0.638  0.00  0.00    -0.297 N 
ATOM     64  H   ARG A  10      31.566  53.942   1.155  0.00  0.00    +0.150 HD
ATOM     65  O   GLY A   9      32.729  55.414  -1.385  0.00  0.00    -0.273 OA
BRANCH  63  66
ATOM     66  CA  ARG A  10      32.438  55.900   1.334  0.00  0.00    +0.149 C 
BRANCH  66  67
ATOM     67  C   ARG A  10      33.207  55.370   2.506  0.00  0.00    +0.241 C 
ATOM     68  N   ARG A  11      33.436  56.214   3.497  0.00  0.00    -0.297 N 
ATOM     69  H   ARG A  11      33.391  57.239   3.328  0.00  0.00    +0.150 HD
ATOM     70  O   ARG A  10      33.613  54.200   2.502  0.00  0.00    -0.273 OA
BRANCH  68  71
ATOM     71  CA  ARG A  11      33.751  55.708   4.824  0.00  0.00    +0.149 C 
BRANCH  71  72
ATOM     72  C   ARG A  11      35.150  55.069   4.974  0.00  0.00    +0.241 C 
ATOM     73  O   ARG A  11      36.024  55.675   5.628  0.00  0.00    -0.273 OA
ATOM     74  N   GLU A  12      35.380  53.906   4.334  0.00  0.00    -0.298 N 
ATOM     75  H   GLU A  12      34.709  53.604   3.599  0.00  0.00    +0.150 HD
BRANCH  74  76
ATOM     76  CA  GLU A  12      36.545  53.037   4.629  0.00  0.00    +0.137 C 
BRANCH  76  77
ATOM     77  C   GLU A  12      37.098  52.311   3.361  0.00  0.00    +0.227 C 
ATOM     78  O   GLU A  12      37.025  51.055   3.266  0.00  0.00    -0.286 OA
ENDBRANCH  76  77
BRANCH  76  79
ATOM     79  CB  GLU A  12      36.181  52.046   5.783  0.00  0.00    +0.039 C 
BRANCH  79  80
ATOM     80  CG  GLU A  12      36.241  52.705   7.237  0.00  0.00    +0.116 C 
BRANCH  80  81
ATOM     81  CD  GLU A  12      35.333  52.074   8.320  0.00  0.00    +0.365 C 
ATOM     82  OE2 GLU A  12      35.267  52.669   9.423  0.00  0.00    -0.246 OA
ATOM     83  OE1 GLU A  12      34.697  51.014   8.093  0.00  0.00    -0.246 OA
ENDBRANCH  80  81
ENDBRANCH  79  80
ENDBRANCH  76  79
ENDBRANCH  74  76
ENDBRANCH  71  72
BRANCH  71  84
ATOM     84  CB  ARG A  11      32.610  54.772   5.332  0.00  0.00    +0.033 C 
BRANCH  84  85
ATOM     85  CG  ARG A  11      32.467  53.326   4.810  0.00  0.00    +0.045 C 
BRANCH  85  86
ATOM     86  CD  ARG A  11      31.448  52.556   5.642  0.00  0.00    +0.174 C 
BRANCH  86  87
ATOM     87  NE  ARG A  11      31.851  52.347   7.041  0.00  0.00    -0.265 N 
ATOM     88  CZ  ARG A  11      31.083  52.562   8.116  0.00  0.00    +0.342 C 
ATOM     89  NH2 ARG A  11      31.583  52.325   9.335  0.00  0.00    -0.292 N 
ATOM     90 HH21 ARG A  11      30.997  52.488  10.178  0.00  0.00    +0.255 HD
ATOM     91 HH22 ARG A  11      32.558  51.978   9.439  0.00  0.00    +0.255 HD
ATOM     92  NH1 ARG A  11      29.810  52.997   8.006  0.00  0.00    -0.292 N 
ATOM     93 HH11 ARG A  11      29.239  53.155   8.861  0.00  0.00    +0.255 HD
ATOM     94 HH12 ARG A  11      29.400  53.175   7.067  0.00  0.00    +0.255 HD
ATOM     95  HE  ARG A  11      32.817  52.002   7.210  0.00  0.00    +0.259 HD
ENDBRANCH  86  87
ENDBRANCH  85  86
ENDBRANCH  84  85
ENDBRANCH  71  84
ENDBRANCH  68  71
ENDBRANCH  66  67
BRANCH  66  96
ATOM     96  CB  ARG A  10      31.190  56.639   1.794  0.00  0.00    +0.033 C 
BRANCH  96  97
ATOM     97  CG  ARG A  10      30.433  57.215   0.638  0.00  0.00    +0.045 C 
BRANCH  97  98
ATOM     98  CD  ARG A  10      28.985  57.357   0.954  0.00  0.00    +0.174 C 
BRANCH  98  99
ATOM     99  NE  ARG A  10      28.182  57.150  -0.247  0.00  0.00    -0.265 N 
ATOM    100  CZ  ARG A  10      26.864  56.953  -0.247  0.00  0.00    +0.342 C 
ATOM    101  NH2 ARG A  10      26.172  56.928   0.902  0.00  0.00    -0.292 N 
ATOM    102 HH21 ARG A  10      26.664  57.063   1.808  0.00  0.00    +0.255 HD
ATOM    103 HH22 ARG A  10      25.144  56.773   0.886  0.00  0.00    +0.255 HD
ATOM    104  NH1 ARG A  10      26.231  56.768  -1.413  0.00  0.00    -0.292 N 
ATOM    105 HH11 ARG A  10      25.203  56.613  -1.428  0.00  0.00    +0.255 HD
ATOM    106 HH12 ARG A  10      26.768  56.779  -2.304  0.00  0.00    +0.255 HD
ATOM    107  HE  ARG A  10      28.671  57.157  -1.165  0.00  0.00    +0.259 HD
ENDBRANCH  98  99
ENDBRANCH  97  98
ENDBRANCH  96  97
ENDBRANCH  66  96
ENDBRANCH  63  66
ENDBRANCH  61  62
ENDBRANCH  58  61
ENDBRANCH  56  57
BRANCH  56 108
ATOM    108  CB  LEU A   8      28.861  50.091   0.180  0.00  0.00    +0.029 C 
BRANCH 108 109
ATOM    109  CG  LEU A   8      29.658  48.984  -0.427  0.00  0.00    +0.002 C 
ATOM    110  CD2 LEU A   8      30.604  48.303   0.618  0.00  0.00    +0.000 C 
ATOM    111  CD1 LEU A   8      28.579  48.065  -1.006  0.00  0.00    +0.000 C 
ENDBRANCH 108 109
ENDBRANCH  56 108
ENDBRANCH  54  56
ENDBRANCH   1  52
BRANCH   1 112
ATOM    112  CB  ARG A   7      27.654  53.841   4.364  0.00  0.00    +0.033 C 
BRANCH 112 113
ATOM    113  CG  ARG A   7      26.503  54.433   5.093  0.00  0.00    +0.045 C 
BRANCH 113 114
ATOM    114  CD  ARG A   7      26.221  55.834   4.635  0.00  0.00    +0.174 C 
BRANCH 114 115
ATOM    115  NE  ARG A   7      27.333  56.695   4.992  0.00  0.00    -0.265 N 
ATOM    116  HE  ARG A   7      28.107  56.275   5.546  0.00  0.00    +0.259 HD
ATOM    117  CZ  ARG A   7      27.438  57.968   4.669  0.00  0.00    +0.342 C 
ATOM    118  NH2 ARG A   7      28.531  58.636   5.067  0.00  0.00    -0.292 N 
ATOM    119 HH21 ARG A   7      29.268  58.148   5.616  0.00  0.00    +0.255 HD
ATOM    120 HH22 ARG A   7      28.642  59.642   4.827  0.00  0.00    +0.255 HD
ATOM    121  NH1 ARG A   7      26.469  58.583   3.958  0.00  0.00    -0.292 N 
ATOM    122 HH11 ARG A   7      26.565  59.588   3.710  0.00  0.00    +0.255 HD
ATOM    123 HH12 ARG A   7      25.627  58.051   3.658  0.00  0.00    +0.255 HD
ENDBRANCH 114 115
ENDBRANCH 113 114
ENDBRANCH 112 113
ENDBRANCH   1 112
TORSDOF 46
REMARK  Name = ../refined-set-2016/4b6p/4b6p_pocket.pdb
REMARK  224 active torsions:
REMARK  status: ('A' for Active; 'I' for Inactive)
REMARK    1  A    between atoms: _1  and  _3
REMARK    2  A    between atoms: _3  and  _4
REMARK    3  A    between atoms: _3  and  _6
REMARK    4  A    between atoms: _6  and  _7
REMARK    5  A    between atoms: _12  and  _14
REMARK    6  A    between atoms: _14  and  _15
REMARK    7  A    between atoms: _18  and  _19
REMARK    8  A    between atoms: _24  and  _26
REMARK    9  A    between atoms: _26  and  _27
REMARK   10  A    between atoms: _26  and  _29
REMARK   11  A    between atoms: _29  and  _30
REMARK   12  A    between atoms: _35  and  _37
REMARK   13  A    between atoms: _37  and  _38
REMARK   14  A    between atoms: _37  and  _40
REMARK   15  A    between atoms: _40  and  _41
REMARK   16  A    between atoms: _44  and  _46
REMARK   17  A    between atoms: _46  and  _47
REMARK   18  A    between atoms: _49  and  _51
REMARK   19  A    between atoms: _51  and  _52
REMARK   20  A    between atoms: _51  and  _54
REMARK   21  A    between atoms: _54  and  _55
REMARK   22  A    between atoms: _55  and  _56
REMARK   23  A    between atoms: _56  and  _57
REMARK   24  A    between atoms: _66  and  _68
REMARK   25  A    between atoms: _68  and  _69
REMARK   26  A    between atoms: _68  and  _71
REMARK   27  A    between atoms: _71  and  _72
REMARK   28  A    between atoms: _75  and  _77
REMARK   29  A    between atoms: _77  and  _78
REMARK   30  A    between atoms: _80  and  _82
REMARK   31  A    between atoms: _82  and  _83
REMARK   32  A    between atoms: _82  and  _85
REMARK   33  A    between atoms: _85  and  _86
REMARK   34  A    between atoms: _86  and  _87
REMARK   35  A    between atoms: _87  and  _88
REMARK   36  A    between atoms: _97  and  _99
REMARK   37  A    between atoms: _99  and  _100
REMARK   38  A    between atoms: _99  and  _102
REMARK   39  A    between atoms: _102  and  _103
REMARK   40  A    between atoms: _103  and  _104
REMARK   41  A    between atoms: _104  and  _105
REMARK   42  A    between atoms: _114  and  _116
REMARK   43  A    between atoms: _116  and  _117
REMARK   44  A    between atoms: _116  and  _119
REMARK   45  A    between atoms: _119  and  _120
REMARK   46  A    between atoms: _120  and  _121
REMARK   47  A    between atoms: _124  and  _126
REMARK   48  A    between atoms: _126  and  _127
REMARK   49  A    between atoms: _126  and  _129
REMARK   50  A    between atoms: _132  and  _134
REMARK   51  A    between atoms: _134  and  _135
REMARK   52  A    between atoms: _134  and  _137
REMARK   53  A    between atoms: _137  and  _138
REMARK   54  A    between atoms: _143  and  _144
REMARK   55  A    between atoms: _146  and  _148
REMARK   56  A    between atoms: _148  and  _149
REMARK   57  A    between atoms: _151  and  _153
REMARK   58  A    between atoms: _153  and  _154
REMARK   59  A    between atoms: _153  and  _156
REMARK   60  A    between atoms: _156  and  _157
REMARK   61  A    between atoms: _160  and  _162
REMARK   62  A    between atoms: _162  and  _163
REMARK   63  A    between atoms: _162  and  _165
REMARK   64  A    between atoms: _165  and  _166
REMARK   65  A    between atoms: _171  and  _173
REMARK   66  A    between atoms: _173  and  _174
REMARK   67  A    between atoms: _173  and  _176
REMARK   68  A    between atoms: _176  and  _177
REMARK   69  A    between atoms: _180  and  _182
REMARK   70  A    between atoms: _182  and  _183
REMARK   71  A    between atoms: _182  and  _185
REMARK   72  A    between atoms: _185  and  _186
REMARK   73  A    between atoms: _186  and  _187
REMARK   74  A    between atoms: _192  and  _194
REMARK   75  A    between atoms: _194  and  _195
REMARK   76  A    between atoms: _194  and  _197
REMARK   77  A    between atoms: _197  and  _198
REMARK   78  A    between atoms: _201  and  _203
REMARK   79  A    between atoms: _203  and  _204
REMARK   80  A    between atoms: _203  and  _206
REMARK   81  A    between atoms: _206  and  _207
REMARK   82  A    between atoms: _210  and  _212
REMARK   83  A    between atoms: _212  and  _213
REMARK   84  A    between atoms: _212  and  _215
REMARK   85  A    between atoms: _215  and  _216
REMARK   86  A    between atoms: _221  and  _223
REMARK   87  A    between atoms: _223  and  _224
REMARK   88  A    between atoms: _227  and  _229
REMARK   89  A    between atoms: _229  and  _230
REMARK   90  A    between atoms: _232  and  _234
REMARK   91  A    between atoms: _234  and  _235
REMARK   92  A    between atoms: _237  and  _239
REMARK   93  A    between atoms: _239  and  _240
REMARK   94  A    between atoms: _239  and  _242
REMARK   95  A    between atoms: _242  and  _243
REMARK   96  A    between atoms: _246  and  _248
REMARK   97  A    between atoms: _248  and  _249
REMARK   98  A    between atoms: _248  and  _251
REMARK   99  A    between atoms: _251  and  _252
REMARK  100  A    between atoms: _255  and  _257
REMARK  101  A    between atoms: _257  and  _258
REMARK  102  A    between atoms: _257  and  _260
REMARK  103  A    between atoms: _260  and  _261
REMARK  104  A    between atoms: _266  and  _268
REMARK  105  A    between atoms: _268  and  _269
REMARK  106  A    between atoms: _268  and  _271
REMARK  107  A    between atoms: _271  and  _272
REMARK  108  A    between atoms: _272  and  _273
REMARK  109  A    between atoms: _276  and  _278
REMARK  110  A    between atoms: _278  and  _279
REMARK  111  A    between atoms: _278  and  _281
REMARK  112  A    between atoms: _284  and  _286
REMARK  113  A    between atoms: _286  and  _287
REMARK  114  A    between atoms: _286  and  _289
REMARK  115  A    between atoms: _289  and  _290
REMARK  116  A    between atoms: _295  and  _297
REMARK  117  A    between atoms: _297  and  _298
REMARK  118  A    between atoms: _297  and  _300
REMARK  119  A    between atoms: _300  and  _301
REMARK  120  A    between atoms: _304  and  _306
REMARK  121  A    between atoms: _306  and  _307
REMARK  122  A    between atoms: _306  and  _309
REMARK  123  A    between atoms: _309  and  _310
REMARK  124  A    between atoms: _312  and  _314
REMARK  125  A    between atoms: _314  and  _315
REMARK  126  A    between atoms: _314  and  _317
REMARK  127  A    between atoms: _317  and  _318
REMARK  128  A    between atoms: _323  and  _325
REMARK  129  A    between atoms: _325  and  _326
REMARK  130  A    between atoms: _325  and  _328
REMARK  131  A    between atoms: _331  and  _333
REMARK  132  A    between atoms: _333  and  _334
REMARK  133  A    between atoms: _333  and  _336
REMARK  134  A    between atoms: _336  and  _337
REMARK  135  A    between atoms: _342  and  _344
REMARK  136  A    between atoms: _344  and  _345
REMARK  137  A    between atoms: _344  and  _347
REMARK  138  A    between atoms: _347  and  _348
REMARK  139  A    between atoms: _348  and  _349
REMARK  140  A    between atoms: _349  and  _350
REMARK  141  A    between atoms: _359  and  _361
REMARK  142  A    between atoms: _361  and  _362
REMARK  143  A    between atoms: _361  and  _364
REMARK  144  A    between atoms: _364  and  _365
REMARK  145  A    between atoms: _365  and  _366
REMARK  146  A    between atoms: _369  and  _371
REMARK  147  A    between atoms: _371  and  _372
REMARK  148  A    between atoms: _371  and  _374
REMARK  149  A    between atoms: _374  and  _375
REMARK  150  A    between atoms: _381  and  _383
REMARK  151  A    between atoms: _383  and  _384
REMARK  152  A    between atoms: _383  and  _386
REMARK  153  A    between atoms: _386  and  _387
REMARK  154  A    between atoms: _387  and  _388
REMARK  155  A    between atoms: _388  and  _389
REMARK  156  A    between atoms: _398  and  _400
REMARK  157  A    between atoms: _400  and  _401
REMARK  158  A    between atoms: _400  and  _403
REMARK  159  A    between atoms: _403  and  _404
REMARK  160  A    between atoms: _404  and  _405
REMARK  161  A    between atoms: _405  and  _406
REMARK  162  A    between atoms: _415  and  _417
REMARK  163  A    between atoms: _417  and  _418
REMARK  164  A    between atoms: _417  and  _420
REMARK  165  A    between atoms: _420  and  _421
REMARK  166  A    between atoms: _426  and  _428
REMARK  167  A    between atoms: _428  and  _429
REMARK  168  A    between atoms: _428  and  _431
REMARK  169  A    between atoms: _431  and  _432
REMARK  170  A    between atoms: _435  and  _437
REMARK  171  A    between atoms: _437  and  _438
REMARK  172  A    between atoms: _437  and  _440
REMARK  173  A    between atoms: _443  and  _445
REMARK  174  A    between atoms: _445  and  _446
REMARK  175  A    between atoms: _448  and  _450
REMARK  176  A    between atoms: _450  and  _451
REMARK  177  A    between atoms: _450  and  _453
REMARK  178  A    between atoms: _453  and  _454
REMARK  179  A    between atoms: _457  and  _459
REMARK  180  A    between atoms: _459  and  _460
REMARK  181  A    between atoms: _462  and  _464
REMARK  182  A    between atoms: _464  and  _465
REMARK  183  A    between atoms: _464  and  _467
REMARK  184  A    between atoms: _467  and  _468
REMARK  185  A    between atoms: _471  and  _473
REMARK  186  A    between atoms: _473  and  _474
REMARK  187  A    between atoms: _473  and  _476
REMARK  188  A    between atoms: _476  and  _477
REMARK  189  A    between atoms: _482  and  _483
REMARK  190  A    between atoms: _485  and  _487
REMARK  191  A    between atoms: _487  and  _488
REMARK  192  A    between atoms: _487  and  _490
REMARK  193  A    between atoms: _490  and  _491
REMARK  194  A    between atoms: _496  and  _498
REMARK  195  A    between atoms: _498  and  _499
REMARK  196  A    between atoms: _498  and  _501
REMARK  197  A    between atoms: _504  and  _506
REMARK  198  A    between atoms: _506  and  _507
REMARK  199  A    between atoms: _510  and  _512
REMARK  200  A    between atoms: _512  and  _513
REMARK  201  A    between atoms: _512  and  _515
REMARK  202  A    between atoms: _515  and  _516
REMARK  203  A    between atoms: _519  and  _521
REMARK  204  A    between atoms: _521  and  _522
REMARK  205  A    between atoms: _521  and  _524
REMARK  206  A    between atoms: _524  and  _525
REMARK  207  A    between atoms: _525  and  _526
REMARK  208  A    between atoms: _526  and  _527
REMARK  209  A    between atoms: _536  and  _538
REMARK  210  A    between atoms: _538  and  _539
REMARK  211  A    between atoms: _538  and  _541
REMARK  212  A    between atoms: _541  and  _542
REMARK  213  A    between atoms: _545  and  _547
REMARK  214  A    between atoms: _547  and  _548
REMARK  215  A    between atoms: _551  and  _553
REMARK  216  A    between atoms: _553  and  _554
REMARK  217  A    between atoms: _553  and  _556
REMARK  218  A    between atoms: _558  and  _560
REMARK  219  A    between atoms: _560  and  _561
REMARK  220  A    between atoms: _564  and  _566
REMARK  221  A    between atoms: _566  and  _567
REMARK  222  A    between atoms: _566  and  _569
REMARK  223  A    between atoms: _569  and  _570
REMARK  224  A    between atoms: _570  and  _571
REMARK                            x       y       z     vdW  Elec       q    Type
REMARK                         _______ _______ _______ _____ _____    ______ ____
ROOT
ATOM      1  CA  TYR A   2      35.226  47.120   1.947  0.00  0.00    +0.153 C 
ENDROOT
BRANCH   1   4
ATOM      2  C   VAL A   1      37.375  47.089   3.167  0.00  0.00    +0.238 C 
ATOM      3  O   VAL A   1      37.561  45.883   2.903  0.00  0.00    -0.274 OA
ATOM      4  N   TYR A   2      36.322  47.777   2.702  0.00  0.00    -0.297 N 
ATOM      5  H   TYR A   2      36.272  48.801   2.876  0.00  0.00    +0.150 HD
BRANCH   2   6
ATOM      6  CA  VAL A   1      38.365  47.849   4.082  0.00  0.00    +0.145 C 
BRANCH   6   7
ATOM      7  CB  VAL A   1      37.613  48.341   5.410  0.00  0.00    +0.025 C 
ATOM      8  CG2 VAL A   1      38.593  49.006   6.416  0.00  0.00    +0.002 C 
ATOM      9  CG1 VAL A   1      36.844  47.190   6.096  0.00  0.00    +0.002 C 
ENDBRANCH   6   7
BRANCH   6  10
ATOM     10  N   VAL A   1      39.065  48.971   3.409  0.00  0.00    -0.238 NA
ATOM     11  H   VAL A   1      38.628  49.914   3.448  0.00  0.00    +0.142 HD
ENDBRANCH   6  10
ENDBRANCH   2   6
ENDBRANCH   1   4
BRANCH   1  12
ATOM     12  C   TYR A   2      35.292  47.305   0.413  0.00  0.00    +0.241 C 
ATOM     13  N   GLY A   3      36.222  48.140  -0.063  0.00  0.00    -0.296 N 
ATOM     14  H   GLY A   3      36.921  48.539   0.596  0.00  0.00    +0.150 HD
ATOM     15  O   TYR A   2      34.505  46.699  -0.322  0.00  0.00    -0.273 OA
BRANCH  13  16
ATOM     16  CA  GLY A   3      36.295  48.517  -1.485  0.00  0.00    +0.163 C 
BRANCH  16  17
ATOM     17  C   GLY A   3      35.780  49.935  -1.683  0.00  0.00    +0.229 C 
ATOM     18  O   GLY A   3      34.957  50.445  -0.874  0.00  0.00    -0.286 OA
ENDBRANCH  16  17
ENDBRANCH  13  16
ENDBRANCH   1  12
BRANCH   1  19
ATOM     19  CB  TYR A   2      33.868  47.632   2.442  0.00  0.00    +0.055 C 
BRANCH  19  20
ATOM     20  CG  TYR A   2      33.662  47.619   3.941  0.00  0.00    -0.020 A 
ATOM     21  CD2 TYR A   2      33.512  48.808   4.653  0.00  0.00    -0.001 A 
ATOM     22  CE2 TYR A   2      33.304  48.811   6.037  0.00  0.00    +0.036 A 
ATOM     23  CZ  TYR A   2      33.242  47.595   6.704  0.00  0.00    +0.134 A 
ATOM     24  CE1 TYR A   2      33.389  46.408   5.999  0.00  0.00    +0.036 A 
ATOM     25  CD1 TYR A   2      33.581  46.426   4.635  0.00  0.00    -0.001 A 
BRANCH  23  26
ATOM     26  OH  TYR A   2      33.028  47.543   8.061  0.00  0.00    -0.506 OA
ATOM     27  HH  TYR A   2      33.015  46.598   8.356  0.00  0.00    +0.292 HD
ENDBRANCH  23  26
ENDBRANCH  19  20
ENDBRANCH   1  19
TORSDOF 10
REMARK  Name = ../refined-set-2016/4b6p/4b6p_pocket.pdb
REMARK  224 active torsions:
REMARK  status: ('A' for Active; 'I' for Inactive)
REMARK    1  A    between atoms: _1  and  _3
REMARK    2  A    between atoms: _3  and  _4
REMARK    3  A    between atoms: _3  and  _6
REMARK    4  A    between atoms: _6  and  _7
REMARK    5  A    between atoms: _12  and  _14
REMARK    6  A    between atoms: _14  and  _15
REMARK    7  A    between atoms: _18  and  _19
REMARK    8  A    between atoms: _24  and  _26
REMARK    9  A    between atoms: _26  and  _27
REMARK   10  A    between atoms: _26  and  _29
REMARK   11  A    between atoms: _29  and  _30
REMARK   12  A    between atoms: _35  and  _37
REMARK   13  A    between atoms: _37  and  _38
REMARK   14  A    between atoms: _37  and  _40
REMARK   15  A    between atoms: _40  and  _41
REMARK   16  A    between atoms: _44  and  _46
REMARK   17  A    between atoms: _46  and  _47
REMARK   18  A    between atoms: _49  and  _51
REMARK   19  A    between atoms: _51  and  _52
REMARK   20  A    between atoms: _51  and  _54
REMARK   21  A    between atoms: _54  and  _55
REMARK   22  A    between atoms: _55  and  _56
REMARK   23  A    between atoms: _56  and  _57
REMARK   24  A    between atoms: _66  and  _68
REMARK   25  A    between atoms: _68  and  _69
REMARK   26  A    between atoms: _68  and  _71
REMARK   27  A    between atoms: _71  and  _72
REMARK   28  A    between atoms: _75  and  _77
REMARK   29  A    between atoms: _77  and  _78
REMARK   30  A    between atoms: _80  and  _82
REMARK   31  A    between atoms: _82  and  _83
REMARK   32  A    between atoms: _82  and  _85
REMARK   33  A    between atoms: _85  and  _86
REMARK   34  A    between atoms: _86  and  _87
REMARK   35  A    between atoms: _87  and  _88
REMARK   36  A    between atoms: _97  and  _99
REMARK   37  A    between atoms: _99  and  _100
REMARK   38  A    between atoms: _99  and  _102
REMARK   39  A    between atoms: _102  and  _103
REMARK   40  A    between atoms: _103  and  _104
REMARK   41  A    between atoms: _104  and  _105
REMARK   42  A    between atoms: _114  and  _116
REMARK   43  A    between atoms: _116  and  _117
REMARK   44  A    between atoms: _116  and  _119
REMARK   45  A    between atoms: _119  and  _120
REMARK   46  A    between atoms: _120  and  _121
REMARK   47  A    between atoms: _124  and  _126
REMARK   48  A    between atoms: _126  and  _127
REMARK   49  A    between atoms: _126  and  _129
REMARK   50  A    between atoms: _132  and  _134
REMARK   51  A    between atoms: _134  and  _135
REMARK   52  A    between atoms: _134  and  _137
REMARK   53  A    between atoms: _137  and  _138
REMARK   54  A    between atoms: _143  and  _144
REMARK   55  A    between atoms: _146  and  _148
REMARK   56  A    between atoms: _148  and  _149
REMARK   57  A    between atoms: _151  and  _153
REMARK   58  A    between atoms: _153  and  _154
REMARK   59  A    between atoms: _153  and  _156
REMARK   60  A    between atoms: _156  and  _157
REMARK   61  A    between atoms: _160  and  _162
REMARK   62  A    between atoms: _162  and  _163
REMARK   63  A    between atoms: _162  and  _165
REMARK   64  A    between atoms: _165  and  _166
REMARK   65  A    between atoms: _171  and  _173
REMARK   66  A    between atoms: _173  and  _174
REMARK   67  A    between atoms: _173  and  _176
REMARK   68  A    between atoms: _176  and  _177
REMARK   69  A    between atoms: _180  and  _182
REMARK   70  A    between atoms: _182  and  _183
REMARK   71  A    between atoms: _182  and  _185
REMARK   72  A    between atoms: _185  and  _186
REMARK   73  A    between atoms: _186  and  _187
REMARK   74  A    between atoms: _192  and  _194
REMARK   75  A    between atoms: _194  and  _195
REMARK   76  A    between atoms: _194  and  _197
REMARK   77  A    between atoms: _197  and  _198
REMARK   78  A    between atoms: _201  and  _203
REMARK   79  A    between atoms: _203  and  _204
REMARK   80  A    between atoms: _203  and  _206
REMARK   81  A    between atoms: _206  and  _207
REMARK   82  A    between atoms: _210  and  _212
REMARK   83  A    between atoms: _212  and  _213
REMARK   84  A    between atoms: _212  and  _215
REMARK   85  A    between atoms: _215  and  _216
REMARK   86  A    between atoms: _221  and  _223
REMARK   87  A    between atoms: _223  and  _224
REMARK   88  A    between atoms: _227  and  _229
REMARK   89  A    between atoms: _229  and  _230
REMARK   90  A    between atoms: _232  and  _234
REMARK   91  A    between atoms: _234  and  _235
REMARK   92  A    between atoms: _237  and  _239
REMARK   93  A    between atoms: _239  and  _240
REMARK   94  A    between atoms: _239  and  _242
REMARK   95  A    between atoms: _242  and  _243
REMARK   96  A    between atoms: _246  and  _248
REMARK   97  A    between atoms: _248  and  _249
REMARK   98  A    between atoms: _248  and  _251
REMARK   99  A    between atoms: _251  and  _252
REMARK  100  A    between atoms: _255  and  _257
REMARK  101  A    between atoms: _257  and  _258
REMARK  102  A    between atoms: _257  and  _260
REMARK  103  A    between atoms: _260  and  _261
REMARK  104  A    between atoms: _266  and  _268
REMARK  105  A    between atoms: _268  and  _269
REMARK  106  A    between atoms: _268  and  _271
REMARK  107  A    between atoms: _271  and  _272
REMARK  108  A    between atoms: _272  and  _273
REMARK  109  A    between atoms: _276  and  _278
REMARK  110  A    between atoms: _278  and  _279
REMARK  111  A    between atoms: _278  and  _281
REMARK  112  A    between atoms: _284  and  _286
REMARK  113  A    between atoms: _286  and  _287
REMARK  114  A    between atoms: _286  and  _289
REMARK  115  A    between atoms: _289  and  _290
REMARK  116  A    between atoms: _295  and  _297
REMARK  117  A    between atoms: _297  and  _298
REMARK  118  A    between atoms: _297  and  _300
REMARK  119  A    between atoms: _300  and  _301
REMARK  120  A    between atoms: _304  and  _306
REMARK  121  A    between atoms: _306  and  _307
REMARK  122  A    between atoms: _306  and  _309
REMARK  123  A    between atoms: _309  and  _310
REMARK  124  A    between atoms: _312  and  _314
REMARK  125  A    between atoms: _314  and  _315
REMARK  126  A    between atoms: _314  and  _317
REMARK  127  A    between atoms: _317  and  _318
REMARK  128  A    between atoms: _323  and  _325
REMARK  129  A    between atoms: _325  and  _326
REMARK  130  A    between atoms: _325  and  _328
REMARK  131  A    between atoms: _331  and  _333
REMARK  132  A    between atoms: _333  and  _334
REMARK  133  A    between atoms: _333  and  _336
REMARK  134  A    between atoms: _336  and  _337
REMARK  135  A    between atoms: _342  and  _344
REMARK  136  A    between atoms: _344  and  _345
REMARK  137  A    between atoms: _344  and  _347
REMARK  138  A    between atoms: _347  and  _348
REMARK  139  A    between atoms: _348  and  _349
REMARK  140  A    between atoms: _349  and  _350
REMARK  141  A    between atoms: _359  and  _361
REMARK  142  A    between atoms: _361  and  _362
REMARK  143  A    between atoms: _361  and  _364
REMARK  144  A    between atoms: _364  and  _365
REMARK  145  A    between atoms: _365  and  _366
REMARK  146  A    between atoms: _369  and  _371
REMARK  147  A    between atoms: _371  and  _372
REMARK  148  A    between atoms: _371  and  _374
REMARK  149  A    between atoms: _374  and  _375
REMARK  150  A    between atoms: _381  and  _383
REMARK  151  A    between atoms: _383  and  _384
REMARK  152  A    between atoms: _383  and  _386
REMARK  153  A    between atoms: _386  and  _387
REMARK  154  A    between atoms: _387  and  _388
REMARK  155  A    between atoms: _388  and  _389
REMARK  156  A    between atoms: _398  and  _400
REMARK  157  A    between atoms: _400  and  _401
REMARK  158  A    between atoms: _400  and  _403
REMARK  159  A    between atoms: _403  and  _404
REMARK  160  A    between atoms: _404  and  _405
REMARK  161  A    between atoms: _405  and  _406
REMARK  162  A    between atoms: _415  and  _417
REMARK  163  A    between atoms: _417  and  _418
REMARK  164  A    between atoms: _417  and  _420
REMARK  165  A    between atoms: _420  and  _421
REMARK  166  A    between atoms: _426  and  _428
REMARK  167  A    between atoms: _428  and  _429
REMARK  168  A    between atoms: _428  and  _431
REMARK  169  A    between atoms: _431  and  _432
REMARK  170  A    between atoms: _435  and  _437
REMARK  171  A    between atoms: _437  and  _438
REMARK  172  A    between atoms: _437  and  _440
REMARK  173  A    between atoms: _443  and  _445
REMARK  174  A    between atoms: _445  and  _446
REMARK  175  A    between atoms: _448  and  _450
REMARK  176  A    between atoms: _450  and  _451
REMARK  177  A    between atoms: _450  and  _453
REMARK  178  A    between atoms: _453  and  _454
REMARK  179  A    between atoms: _457  and  _459
REMARK  180  A    between atoms: _459  and  _460
REMARK  181  A    between atoms: _462  and  _464
REMARK  182  A    between atoms: _464  and  _465
REMARK  183  A    between atoms: _464  and  _467
REMARK  184  A    between atoms: _467  and  _468
REMARK  185  A    between atoms: _471  and  _473
REMARK  186  A    between atoms: _473  and  _474
REMARK  187  A    between atoms: _473  and  _476
REMARK  188  A    between atoms: _476  and  _477
REMARK  189  A    between atoms: _482  and  _483
REMARK  190  A    between atoms: _485  and  _487
REMARK  191  A    between atoms: _487  and  _488
REMARK  192  A    between atoms: _487  and  _490
REMARK  193  A    between atoms: _490  and  _491
REMARK  194  A    between atoms: _496  and  _498
REMARK  195  A    between atoms: _498  and  _499
REMARK  196  A    between atoms: _498  and  _501
REMARK  197  A    between atoms: _504  and  _506
REMARK  198  A    between atoms: _506  and  _507
REMARK  199  A    between atoms: _510  and  _512
REMARK  200  A    between atoms: _512  and  _513
REMARK  201  A    between atoms: _512  and  _515
REMARK  202  A    between atoms: _515  and  _516
REMARK  203  A    between atoms: _519  and  _521
REMARK  204  A    between atoms: _521  and  _522
REMARK  205  A    between atoms: _521  and  _524
REMARK  206  A    between atoms: _524  and  _525
REMARK  207  A    between atoms: _525  and  _526
REMARK  208  A    between atoms: _526  and  _527
REMARK  209  A    between atoms: _536  and  _538
REMARK  210  A    between atoms: _538  and  _539
REMARK  211  A    between atoms: _538  and  _541
REMARK  212  A    between atoms: _541  and  _542
REMARK  213  A    between atoms: _545  and  _547
REMARK  214  A    between atoms: _547  and  _548
REMARK  215  A    between atoms: _551  and  _553
REMARK  216  A    between atoms: _553  and  _554
REMARK  217  A    between atoms: _553  and  _556
REMARK  218  A    between atoms: _558  and  _560
REMARK  219  A    between atoms: _560  and  _561
REMARK  220  A    between atoms: _564  and  _566
REMARK  221  A    between atoms: _566  and  _567
REMARK  222  A    between atoms: _566  and  _569
REMARK  223  A    between atoms: _569  and  _570
REMARK  224  A    between atoms: _570  and  _571
REMARK                            x       y       z     vdW  Elec       q    Type
REMARK                         _______ _______ _______ _____ _____    ______ ____
ROOT
ATOM      1  CA  THR A   1      32.759  50.313  -4.903  0.00  0.00    +0.160 C 
ENDROOT
BRANCH   1   2
ATOM      2  N   THR A   1      34.025  50.547  -4.210  0.00  0.00    -0.237 NA
ATOM      3  H   THR A   1      34.534  49.731  -3.815  0.00  0.00    +0.142 HD
ENDBRANCH   1   2
BRANCH   1   4
ATOM      4  C   THR A   1      31.597  50.859  -4.076  0.00  0.00    +0.227 C 
ATOM      5  O   THR A   1      31.533  50.580  -2.886  0.00  0.00    -0.287 OA
ENDBRANCH   1   4
BRANCH   1   6
ATOM      6  CB  THR A   1      32.523  48.801  -5.110  0.00  0.00    +0.134 C 
ATOM      7  CG2 THR A   1      31.219  48.529  -5.897  0.00  0.00    +0.034 C 
BRANCH   6   8
ATOM      8  OG1 THR A   1      33.631  48.227  -5.819  0.00  0.00    -0.383 OA
ATOM      9  HG1 THR A   1      33.473  47.258  -5.948  0.00  0.00    +0.210 HD
ENDBRANCH   6   8
ENDBRANCH   1   6
TORSDOF 4
REMARK  Name = ../refined-set-2016/4b6p/4b6p_pocket.pdb
REMARK  224 active torsions:
REMARK  status: ('A' for Active; 'I' for Inactive)
REMARK    1  A    between atoms: _1  and  _3
REMARK    2  A    between atoms: _3  and  _4
REMARK    3  A    between atoms: _3  and  _6
REMARK    4  A    between atoms: _6  and  _7
REMARK    5  A    between atoms: _12  and  _14
REMARK    6  A    between atoms: _14  and  _15
REMARK    7  A    between atoms: _18  and  _19
REMARK    8  A    between atoms: _24  and  _26
REMARK    9  A    between atoms: _26  and  _27
REMARK   10  A    between atoms: _26  and  _29
REMARK   11  A    between atoms: _29  and  _30
REMARK   12  A    between atoms: _35  and  _37
REMARK   13  A    between atoms: _37  and  _38
REMARK   14  A    between atoms: _37  and  _40
REMARK   15  A    between atoms: _40  and  _41
REMARK   16  A    between atoms: _44  and  _46
REMARK   17  A    between atoms: _46  and  _47
REMARK   18  A    between atoms: _49  and  _51
REMARK   19  A    between atoms: _51  and  _52
REMARK   20  A    between atoms: _51  and  _54
REMARK   21  A    between atoms: _54  and  _55
REMARK   22  A    between atoms: _55  and  _56
REMARK   23  A    between atoms: _56  and  _57
REMARK   24  A    between atoms: _66  and  _68
REMARK   25  A    between atoms: _68  and  _69
REMARK   26  A    between atoms: _68  and  _71
REMARK   27  A    between atoms: _71  and  _72
REMARK   28  A    between atoms: _75  and  _77
REMARK   29  A    between atoms: _77  and  _78
REMARK   30  A    between atoms: _80  and  _82
REMARK   31  A    between atoms: _82  and  _83
REMARK   32  A    between atoms: _82  and  _85
REMARK   33  A    between atoms: _85  and  _86
REMARK   34  A    between atoms: _86  and  _87
REMARK   35  A    between atoms: _87  and  _88
REMARK   36  A    between atoms: _97  and  _99
REMARK   37  A    between atoms: _99  and  _100
REMARK   38  A    between atoms: _99  and  _102
REMARK   39  A    between atoms: _102  and  _103
REMARK   40  A    between atoms: _103  and  _104
REMARK   41  A    between atoms: _104  and  _105
REMARK   42  A    between atoms: _114  and  _116
REMARK   43  A    between atoms: _116  and  _117
REMARK   44  A    between atoms: _116  and  _119
REMARK   45  A    between atoms: _119  and  _120
REMARK   46  A    between atoms: _120  and  _121
REMARK   47  A    between atoms: _124  and  _126
REMARK   48  A    between atoms: _126  and  _127
REMARK   49  A    between atoms: _126  and  _129
REMARK   50  A    between atoms: _132  and  _134
REMARK   51  A    between atoms: _134  and  _135
REMARK   52  A    between atoms: _134  and  _137
REMARK   53  A    between atoms: _137  and  _138
REMARK   54  A    between atoms: _143  and  _144
REMARK   55  A    between atoms: _146  and  _148
REMARK   56  A    between atoms: _148  and  _149
REMARK   57  A    between atoms: _151  and  _153
REMARK   58  A    between atoms: _153  and  _154
REMARK   59  A    between atoms: _153  and  _156
REMARK   60  A    between atoms: _156  and  _157
REMARK   61  A    between atoms: _160  and  _162
REMARK   62  A    between atoms: _162  and  _163
REMARK   63  A    between atoms: _162  and  _165
REMARK   64  A    between atoms: _165  and  _166
REMARK   65  A    between atoms: _171  and  _173
REMARK   66  A    between atoms: _173  and  _174
REMARK   67  A    between atoms: _173  and  _176
REMARK   68  A    between atoms: _176  and  _177
REMARK   69  A    between atoms: _180  and  _182
REMARK   70  A    between atoms: _182  and  _183
REMARK   71  A    between atoms: _182  and  _185
REMARK   72  A    between atoms: _185  and  _186
REMARK   73  A    between atoms: _186  and  _187
REMARK   74  A    between atoms: _192  and  _194
REMARK   75  A    between atoms: _194  and  _195
REMARK   76  A    between atoms: _194  and  _197
REMARK   77  A    between atoms: _197  and  _198
REMARK   78  A    between atoms: _201  and  _203
REMARK   79  A    between atoms: _203  and  _204
REMARK   80  A    between atoms: _203  and  _206
REMARK   81  A    between atoms: _206  and  _207
REMARK   82  A    between atoms: _210  and  _212
REMARK   83  A    between atoms: _212  and  _213
REMARK   84  A    between atoms: _212  and  _215
REMARK   85  A    between atoms: _215  and  _216
REMARK   86  A    between atoms: _221  and  _223
REMARK   87  A    between atoms: _223  and  _224
REMARK   88  A    between atoms: _227  and  _229
REMARK   89  A    between atoms: _229  and  _230
REMARK   90  A    between atoms: _232  and  _234
REMARK   91  A    between atoms: _234  and  _235
REMARK   92  A    between atoms: _237  and  _239
REMARK   93  A    between atoms: _239  and  _240
REMARK   94  A    between atoms: _239  and  _242
REMARK   95  A    between atoms: _242  and  _243
REMARK   96  A    between atoms: _246  and  _248
REMARK   97  A    between atoms: _248  and  _249
REMARK   98  A    between atoms: _248  and  _251
REMARK   99  A    between atoms: _251  and  _252
REMARK  100  A    between atoms: _255  and  _257
REMARK  101  A    between atoms: _257  and  _258
REMARK  102  A    between atoms: _257  and  _260
REMARK  103  A    between atoms: _260  and  _261
REMARK  104  A    between atoms: _266  and  _268
REMARK  105  A    between atoms: _268  and  _269
REMARK  106  A    between atoms: _268  and  _271
REMARK  107  A    between atoms: _271  and  _272
REMARK  108  A    between atoms: _272  and  _273
REMARK  109  A    between atoms: _276  and  _278
REMARK  110  A    between atoms: _278  and  _279
REMARK  111  A    between atoms: _278  and  _281
REMARK  112  A    between atoms: _284  and  _286
REMARK  113  A    between atoms: _286  and  _287
REMARK  114  A    between atoms: _286  and  _289
REMARK  115  A    between atoms: _289  and  _290
REMARK  116  A    between atoms: _295  and  _297
REMARK  117  A    between atoms: _297  and  _298
REMARK  118  A    between atoms: _297  and  _300
REMARK  119  A    between atoms: _300  and  _301
REMARK  120  A    between atoms: _304  and  _306
REMARK  121  A    between atoms: _306  and  _307
REMARK  122  A    between atoms: _306  and  _309
REMARK  123  A    between atoms: _309  and  _310
REMARK  124  A    between atoms: _312  and  _314
REMARK  125  A    between atoms: _314  and  _315
REMARK  126  A    between atoms: _314  and  _317
REMARK  127  A    between atoms: _317  and  _318
REMARK  128  A    between atoms: _323  and  _325
REMARK  129  A    between atoms: _325  and  _326
REMARK  130  A    between atoms: _325  and  _328
REMARK  131  A    between atoms: _331  and  _333
REMARK  132  A    between atoms: _333  and  _334
REMARK  133  A    between atoms: _333  and  _336
REMARK  134  A    between atoms: _336  and  _337
REMARK  135  A    between atoms: _342  and  _344
REMARK  136  A    between atoms: _344  and  _345
REMARK  137  A    between atoms: _344  and  _347
REMARK  138  A    between atoms: _347  and  _348
REMARK  139  A    between atoms: _348  and  _349
REMARK  140  A    between atoms: _349  and  _350
REMARK  141  A    between atoms: _359  and  _361
REMARK  142  A    between atoms: _361  and  _362
REMARK  143  A    between atoms: _361  and  _364
REMARK  144  A    between atoms: _364  and  _365
REMARK  145  A    between atoms: _365  and  _366
REMARK  146  A    between atoms: _369  and  _371
REMARK  147  A    between atoms: _371  and  _372
REMARK  148  A    between atoms: _371  and  _374
REMARK  149  A    between atoms: _374  and  _375
REMARK  150  A    between atoms: _381  and  _383
REMARK  151  A    between atoms: _383  and  _384
REMARK  152  A    between atoms: _383  and  _386
REMARK  153  A    between atoms: _386  and  _387
REMARK  154  A    between atoms: _387  and  _388
REMARK  155  A    between atoms: _388  and  _389
REMARK  156  A    between atoms: _398  and  _400
REMARK  157  A    between atoms: _400  and  _401
REMARK  158  A    between atoms: _400  and  _403
REMARK  159  A    between atoms: _403  and  _404
REMARK  160  A    between atoms: _404  and  _405
REMARK  161  A    between atoms: _405  and  _406
REMARK  162  A    between atoms: _415  and  _417
REMARK  163  A    between atoms: _417  and  _418
REMARK  164  A    between atoms: _417  and  _420
REMARK  165  A    between atoms: _420  and  _421
REMARK  166  A    between atoms: _426  and  _428
REMARK  167  A    between atoms: _428  and  _429
REMARK  168  A    between atoms: _428  and  _431
REMARK  169  A    between atoms: _431  and  _432
REMARK  170  A    between atoms: _435  and  _437
REMARK  171  A    between atoms: _437  and  _438
REMARK  172  A    between atoms: _437  and  _440
REMARK  173  A    between atoms: _443  and  _445
REMARK  174  A    between atoms: _445  and  _446
REMARK  175  A    between atoms: _448  and  _450
REMARK  176  A    between atoms: _450  and  _451
REMARK  177  A    between atoms: _450  and  _453
REMARK  178  A    between atoms: _453  and  _454
REMARK  179  A    between atoms: _457  and  _459
REMARK  180  A    between atoms: _459  and  _460
REMARK  181  A    between atoms: _462  and  _464
REMARK  182  A    between atoms: _464  and  _465
REMARK  183  A    between atoms: _464  and  _467
REMARK  184  A    between atoms: _467  and  _468
REMARK  185  A    between atoms: _471  and  _473
REMARK  186  A    between atoms: _473  and  _474
REMARK  187  A    between atoms: _473  and  _476
REMARK  188  A    between atoms: _476  and  _477
REMARK  189  A    between atoms: _482  and  _483
REMARK  190  A    between atoms: _485  and  _487
REMARK  191  A    between atoms: _487  and  _488
REMARK  192  A    between atoms: _487  and  _490
REMARK  193  A    between atoms: _490  and  _491
REMARK  194  A    between atoms: _496  and  _498
REMARK  195  A    between atoms: _498  and  _499
REMARK  196  A    between atoms: _498  and  _501
REMARK  197  A    between atoms: _504  and  _506
REMARK  198  A    between atoms: _506  and  _507
REMARK  199  A    between atoms: _510  and  _512
REMARK  200  A    between atoms: _512  and  _513
REMARK  201  A    between atoms: _512  and  _515
REMARK  202  A    between atoms: _515  and  _516
REMARK  203  A    between atoms: _519  and  _521
REMARK  204  A    between atoms: _521  and  _522
REMARK  205  A    between atoms: _521  and  _524
REMARK  206  A    between atoms: _524  and  _525
REMARK  207  A    between atoms: _525  and  _526
REMARK  208  A    between atoms: _526  and  _527
REMARK  209  A    between atoms: _536  and  _538
REMARK  210  A    between atoms: _538  and  _539
REMARK  211  A    between atoms: _538  and  _541
REMARK  212  A    between atoms: _541  and  _542
REMARK  213  A    between atoms: _545  and  _547
REMARK  214  A    between atoms: _547  and  _548
REMARK  215  A    between atoms: _551  and  _553
REMARK  216  A    between atoms: _553  and  _554
REMARK  217  A    between atoms: _553  and  _556
REMARK  218  A    between atoms: _558  and  _560
REMARK  219  A    between atoms: _560  and  _561
REMARK  220  A    between atoms: _564  and  _566
REMARK  221  A    between atoms: _566  and  _567
REMARK  222  A    between atoms: _566  and  _569
REMARK  223  A    between atoms: _569  and  _570
REMARK  224  A    between atoms: _570  and  _571
REMARK                            x       y       z     vdW  Elec       q    Type
REMARK                         _______ _______ _______ _____ _____    ______ ____
ROOT
ATOM      1  CB  HIS A   1      25.113  50.690  -2.337  0.00  0.00    +0.072 C 
ENDROOT
BRANCH   1   2
ATOM      2  CG  HIS A   1      24.158  49.557  -2.141  0.00  0.00    +0.082 A 
ATOM      3  CD2 HIS A   1      24.215  48.466  -1.339  0.00  0.00    +0.115 A 
ATOM      4  NE2 HIS A   1      23.088  47.721  -1.591  0.00  0.00    -0.221 NA
ATOM      5  CE1 HIS A   1      22.369  48.336  -2.517  0.00  0.00    +0.199 A 
ATOM      6  ND1 HIS A   1      22.994  49.446  -2.858  0.00  0.00    -0.227 NA
ENDBRANCH   1   2
BRANCH   1   7
ATOM      7  CA  HIS A   1      26.124  50.421  -3.456  0.00  0.00    +0.139 C 
BRANCH   7   8
ATOM      8  N   HIS A   1      27.255  51.345  -3.407  0.00  0.00    -0.239 NA
ATOM      9  H   HIS A   1      27.216  52.190  -2.802  0.00  0.00    +0.142 HD
ENDBRANCH   7   8
BRANCH   7  10
ATOM     10  C   HIS A   1      25.417  50.437  -4.837  0.00  0.00    +0.224 C 
ATOM     11  O   HIS A   1      24.953  49.398  -5.310  0.00  0.00    -0.287 OA
ENDBRANCH   7  10
ENDBRANCH   1   7
TORSDOF 4
REMARK  Name = ../refined-set-2016/4b6p/4b6p_pocket.pdb
REMARK  224 active torsions:
REMARK  status: ('A' for Active; 'I' for Inactive)
REMARK    1  A    between atoms: _1  and  _3
REMARK    2  A    between atoms: _3  and  _4
REMARK    3  A    between atoms: _3  and  _6
REMARK    4  A    between atoms: _6  and  _7
REMARK    5  A    between atoms: _12  and  _14
REMARK    6  A    between atoms: _14  and  _15
REMARK    7  A    between atoms: _18  and  _19
REMARK    8  A    between atoms: _24  and  _26
REMARK    9  A    between atoms: _26  and  _27
REMARK   10  A    between atoms: _26  and  _29
REMARK   11  A    between atoms: _29  and  _30
REMARK   12  A    between atoms: _35  and  _37
REMARK   13  A    between atoms: _37  and  _38
REMARK   14  A    between atoms: _37  and  _40
REMARK   15  A    between atoms: _40  and  _41
REMARK   16  A    between atoms: _44  and  _46
REMARK   17  A    between atoms: _46  and  _47
REMARK   18  A    between atoms: _49  and  _51
REMARK   19  A    between atoms: _51  and  _52
REMARK   20  A    between atoms: _51  and  _54
REMARK   21  A    between atoms: _54  and  _55
REMARK   22  A    between atoms: _55  and  _56
REMARK   23  A    between atoms: _56  and  _57
REMARK   24  A    between atoms: _66  and  _68
REMARK   25  A    between atoms: _68  and  _69
REMARK   26  A    between atoms: _68  and  _71
REMARK   27  A    between atoms: _71  and  _72
REMARK   28  A    between atoms: _75  and  _77
REMARK   29  A    between atoms: _77  and  _78
REMARK   30  A    between atoms: _80  and  _82
REMARK   31  A    between atoms: _82  and  _83
REMARK   32  A    between atoms: _82  and  _85
REMARK   33  A    between atoms: _85  and  _86
REMARK   34  A    between atoms: _86  and  _87
REMARK   35  A    between atoms: _87  and  _88
REMARK   36  A    between atoms: _97  and  _99
REMARK   37  A    between atoms: _99  and  _100
REMARK   38  A    between atoms: _99  and  _102
REMARK   39  A    between atoms: _102  and  _103
REMARK   40  A    between atoms: _103  and  _104
REMARK   41  A    between atoms: _104  and  _105
REMARK   42  A    between atoms: _114  and  _116
REMARK   43  A    between atoms: _116  and  _117
REMARK   44  A    between atoms: _116  and  _119
REMARK   45  A    between atoms: _119  and  _120
REMARK   46  A    between atoms: _120  and  _121
REMARK   47  A    between atoms: _124  and  _126
REMARK   48  A    between atoms: _126  and  _127
REMARK   49  A    between atoms: _126  and  _129
REMARK   50  A    between atoms: _132  and  _134
REMARK   51  A    between atoms: _134  and  _135
REMARK   52  A    between atoms: _134  and  _137
REMARK   53  A    between atoms: _137  and  _138
REMARK   54  A    between atoms: _143  and  _144
REMARK   55  A    between atoms: _146  and  _148
REMARK   56  A    between atoms: _148  and  _149
REMARK   57  A    between atoms: _151  and  _153
REMARK   58  A    between atoms: _153  and  _154
REMARK   59  A    between atoms: _153  and  _156
REMARK   60  A    between atoms: _156  and  _157
REMARK   61  A    between atoms: _160  and  _162
REMARK   62  A    between atoms: _162  and  _163
REMARK   63  A    between atoms: _162  and  _165
REMARK   64  A    between atoms: _165  and  _166
REMARK   65  A    between atoms: _171  and  _173
REMARK   66  A    between atoms: _173  and  _174
REMARK   67  A    between atoms: _173  and  _176
REMARK   68  A    between atoms: _176  and  _177
REMARK   69  A    between atoms: _180  and  _182
REMARK   70  A    between atoms: _182  and  _183
REMARK   71  A    between atoms: _182  and  _185
REMARK   72  A    between atoms: _185  and  _186
REMARK   73  A    between atoms: _186  and  _187
REMARK   74  A    between atoms: _192  and  _194
REMARK   75  A    between atoms: _194  and  _195
REMARK   76  A    between atoms: _194  and  _197
REMARK   77  A    between atoms: _197  and  _198
REMARK   78  A    between atoms: _201  and  _203
REMARK   79  A    between atoms: _203  and  _204
REMARK   80  A    between atoms: _203  and  _206
REMARK   81  A    between atoms: _206  and  _207
REMARK   82  A    between atoms: _210  and  _212
REMARK   83  A    between atoms: _212  and  _213
REMARK   84  A    between atoms: _212  and  _215
REMARK   85  A    between atoms: _215  and  _216
REMARK   86  A    between atoms: _221  and  _223
REMARK   87  A    between atoms: _223  and  _224
REMARK   88  A    between atoms: _227  and  _229
REMARK   89  A    between atoms: _229  and  _230
REMARK   90  A    between atoms: _232  and  _234
REMARK   91  A    between atoms: _234  and  _235
REMARK   92  A    between atoms: _237  and  _239
REMARK   93  A    between atoms: _239  and  _240
REMARK   94  A    between atoms: _239  and  _242
REMARK   95  A    between atoms: _242  and  _243
REMARK   96  A    between atoms: _246  and  _248
REMARK   97  A    between atoms: _248  and  _249
REMARK   98  A    between atoms: _248  and  _251
REMARK   99  A    between atoms: _251  and  _252
REMARK  100  A    between atoms: _255  and  _257
REMARK  101  A    between atoms: _257  and  _258
REMARK  102  A    between atoms: _257  and  _260
REMARK  103  A    between atoms: _260  and  _261
REMARK  104  A    between atoms: _266  and  _268
REMARK  105  A    between atoms: _268  and  _269
REMARK  106  A    between atoms: _268  and  _271
REMARK  107  A    between atoms: _271  and  _272
REMARK  108  A    between atoms: _272  and  _273
REMARK  109  A    between atoms: _276  and  _278
REMARK  110  A    between atoms: _278  and  _279
REMARK  111  A    between atoms: _278  and  _281
REMARK  112  A    between atoms: _284  and  _286
REMARK  113  A    between atoms: _286  and  _287
REMARK  114  A    between atoms: _286  and  _289
REMARK  115  A    between atoms: _289  and  _290
REMARK  116  A    between atoms: _295  and  _297
REMARK  117  A    between atoms: _297  and  _298
REMARK  118  A    between atoms: _297  and  _300
REMARK  119  A    between atoms: _300  and  _301
REMARK  120  A    between atoms: _304  and  _306
REMARK  121  A    between atoms: _306  and  _307
REMARK  122  A    between atoms: _306  and  _309
REMARK  123  A    between atoms: _309  and  _310
REMARK  124  A    between atoms: _312  and  _314
REMARK  125  A    between atoms: _314  and  _315
REMARK  126  A    between atoms: _314  and  _317
REMARK  127  A    between atoms: _317  and  _318
REMARK  128  A    between atoms: _323  and  _325
REMARK  129  A    between atoms: _325  and  _326
REMARK  130  A    between atoms: _325  and  _328
REMARK  131  A    between atoms: _331  and  _333
REMARK  132  A    between atoms: _333  and  _334
REMARK  133  A    between atoms: _333  and  _336
REMARK  134  A    between atoms: _336  and  _337
REMARK  135  A    between atoms: _342  and  _344
REMARK  136  A    between atoms: _344  and  _345
REMARK  137  A    between atoms: _344  and  _347
REMARK  138  A    between atoms: _347  and  _348
REMARK  139  A    between atoms: _348  and  _349
REMARK  140  A    between atoms: _349  and  _350
REMARK  141  A    between atoms: _359  and  _361
REMARK  142  A    between atoms: _361  and  _362
REMARK  143  A    between atoms: _361  and  _364
REMARK  144  A    between atoms: _364  and  _365
REMARK  145  A    between atoms: _365  and  _366
REMARK  146  A    between atoms: _369  and  _371
REMARK  147  A    between atoms: _371  and  _372
REMARK  148  A    between atoms: _371  and  _374
REMARK  149  A    between atoms: _374  and  _375
REMARK  150  A    between atoms: _381  and  _383
REMARK  151  A    between atoms: _383  and  _384
REMARK  152  A    between atoms: _383  and  _386
REMARK  153  A    between atoms: _386  and  _387
REMARK  154  A    between atoms: _387  and  _388
REMARK  155  A    between atoms: _388  and  _389
REMARK  156  A    between atoms: _398  and  _400
REMARK  157  A    between atoms: _400  and  _401
REMARK  158  A    between atoms: _400  and  _403
REMARK  159  A    between atoms: _403  and  _404
REMARK  160  A    between atoms: _404  and  _405
REMARK  161  A    between atoms: _405  and  _406
REMARK  162  A    between atoms: _415  and  _417
REMARK  163  A    between atoms: _417  and  _418
REMARK  164  A    between atoms: _417  and  _420
REMARK  165  A    between atoms: _420  and  _421
REMARK  166  A    between atoms: _426  and  _428
REMARK  167  A    between atoms: _428  and  _429
REMARK  168  A    between atoms: _428  and  _431
REMARK  169  A    between atoms: _431  and  _432
REMARK  170  A    between atoms: _435  and  _437
REMARK  171  A    between atoms: _437  and  _438
REMARK  172  A    between atoms: _437  and  _440
REMARK  173  A    between atoms: _443  and  _445
REMARK  174  A    between atoms: _445  and  _446
REMARK  175  A    between atoms: _448  and  _450
REMARK  176  A    between atoms: _450  and  _451
REMARK  177  A    between atoms: _450  and  _453
REMARK  178  A    between atoms: _453  and  _454
REMARK  179  A    between atoms: _457  and  _459
REMARK  180  A    between atoms: _459  and  _460
REMARK  181  A    between atoms: _462  and  _464
REMARK  182  A    between atoms: _464  and  _465
REMARK  183  A    between atoms: _464  and  _467
REMARK  184  A    between atoms: _467  and  _468
REMARK  185  A    between atoms: _471  and  _473
REMARK  186  A    between atoms: _473  and  _474
REMARK  187  A    between atoms: _473  and  _476
REMARK  188  A    between atoms: _476  and  _477
REMARK  189  A    between atoms: _482  and  _483
REMARK  190  A    between atoms: _485  and  _487
REMARK  191  A    between atoms: _487  and  _488
REMARK  192  A    between atoms: _487  and  _490
REMARK  193  A    between atoms: _490  and  _491
REMARK  194  A    between atoms: _496  and  _498
REMARK  195  A    between atoms: _498  and  _499
REMARK  196  A    between atoms: _498  and  _501
REMARK  197  A    between atoms: _504  and  _506
REMARK  198  A    between atoms: _506  and  _507
REMARK  199  A    between atoms: _510  and  _512
REMARK  200  A    between atoms: _512  and  _513
REMARK  201  A    between atoms: _512  and  _515
REMARK  202  A    between atoms: _515  and  _516
REMARK  203  A    between atoms: _519  and  _521
REMARK  204  A    between atoms: _521  and  _522
REMARK  205  A    between atoms: _521  and  _524
REMARK  206  A    between atoms: _524  and  _525
REMARK  207  A    between atoms: _525  and  _526
REMARK  208  A    between atoms: _526  and  _527
REMARK  209  A    between atoms: _536  and  _538
REMARK  210  A    between atoms: _538  and  _539
REMARK  211  A    between atoms: _538  and  _541
REMARK  212  A    between atoms: _541  and  _542
REMARK  213  A    between atoms: _545  and  _547
REMARK  214  A    between atoms: _547  and  _548
REMARK  215  A    between atoms: _551  and  _553
REMARK  216  A    between atoms: _553  and  _554
REMARK  217  A    between atoms: _553  and  _556
REMARK  218  A    between atoms: _558  and  _560
REMARK  219  A    between atoms: _560  and  _561
REMARK  220  A    between atoms: _564  and  _566
REMARK  221  A    between atoms: _566  and  _567
REMARK  222  A    between atoms: _566  and  _569
REMARK  223  A    between atoms: _569  and  _570
REMARK  224  A    between atoms: _570  and  _571
REMARK                            x       y       z     vdW  Elec       q    Type
REMARK                         _______ _______ _______ _____ _____    ______ ____
ROOT
ATOM      1  CA  LEU A   1      27.190  46.958  -6.514  0.00  0.00    +0.133 C 
ENDROOT
BRANCH   1   2
ATOM      2  N   LEU A   1      27.463  48.336  -6.939  0.00  0.00    -0.239 NA
ATOM      3  H   LEU A   1      27.559  49.081  -6.220  0.00  0.00    +0.142 HD
ENDBRANCH   1   2
BRANCH   1   4
ATOM      4  C   LEU A   1      25.911  46.447  -7.153  0.00  0.00    +0.224 C 
ATOM      5  O   LEU A   1      25.908  45.350  -7.695  0.00  0.00    -0.287 OA
ENDBRANCH   1   4
BRANCH   1   6
ATOM      6  CB  LEU A   1      27.143  46.825  -4.977  0.00  0.00    +0.025 C 
BRANCH   6   7
ATOM      7  CG  LEU A   1      26.828  45.441  -4.390  0.00  0.00    +0.002 C 
ATOM      8  CD2 LEU A   1      26.797  45.506  -2.872  0.00  0.00    +0.000 C 
ATOM      9  CD1 LEU A   1      27.792  44.367  -4.845  0.00  0.00    +0.000 C 
ENDBRANCH   6   7
ENDBRANCH   1   6
TORSDOF 4
REMARK  Name = ../refined-set-2016/4b6p/4b6p_pocket.pdb
REMARK  224 active torsions:
REMARK  status: ('A' for Active; 'I' for Inactive)
REMARK    1  A    between atoms: _1  and  _3
REMARK    2  A    between atoms: _3  and  _4
REMARK    3  A    between atoms: _3  and  _6
REMARK    4  A    between atoms: _6  and  _7
REMARK    5  A    between atoms: _12  and  _14
REMARK    6  A    between atoms: _14  and  _15
REMARK    7  A    between atoms: _18  and  _19
REMARK    8  A    between atoms: _24  and  _26
REMARK    9  A    between atoms: _26  and  _27
REMARK   10  A    between atoms: _26  and  _29
REMARK   11  A    between atoms: _29  and  _30
REMARK   12  A    between atoms: _35  and  _37
REMARK   13  A    between atoms: _37  and  _38
REMARK   14  A    between atoms: _37  and  _40
REMARK   15  A    between atoms: _40  and  _41
REMARK   16  A    between atoms: _44  and  _46
REMARK   17  A    between atoms: _46  and  _47
REMARK   18  A    between atoms: _49  and  _51
REMARK   19  A    between atoms: _51  and  _52
REMARK   20  A    between atoms: _51  and  _54
REMARK   21  A    between atoms: _54  and  _55
REMARK   22  A    between atoms: _55  and  _56
REMARK   23  A    between atoms: _56  and  _57
REMARK   24  A    between atoms: _66  and  _68
REMARK   25  A    between atoms: _68  and  _69
REMARK   26  A    between atoms: _68  and  _71
REMARK   27  A    between atoms: _71  and  _72
REMARK   28  A    between atoms: _75  and  _77
REMARK   29  A    between atoms: _77  and  _78
REMARK   30  A    between atoms: _80  and  _82
REMARK   31  A    between atoms: _82  and  _83
REMARK   32  A    between atoms: _82  and  _85
REMARK   33  A    between atoms: _85  and  _86
REMARK   34  A    between atoms: _86  and  _87
REMARK   35  A    between atoms: _87  and  _88
REMARK   36  A    between atoms: _97  and  _99
REMARK   37  A    between atoms: _99  and  _100
REMARK   38  A    between atoms: _99  and  _102
REMARK   39  A    between atoms: _102  and  _103
REMARK   40  A    between atoms: _103  and  _104
REMARK   41  A    between atoms: _104  and  _105
REMARK   42  A    between atoms: _114  and  _116
REMARK   43  A    between atoms: _116  and  _117
REMARK   44  A    between atoms: _116  and  _119
REMARK   45  A    between atoms: _119  and  _120
REMARK   46  A    between atoms: _120  and  _121
REMARK   47  A    between atoms: _124  and  _126
REMARK   48  A    between atoms: _126  and  _127
REMARK   49  A    between atoms: _126  and  _129
REMARK   50  A    between atoms: _132  and  _134
REMARK   51  A    between atoms: _134  and  _135
REMARK   52  A    between atoms: _134  and  _137
REMARK   53  A    between atoms: _137  and  _138
REMARK   54  A    between atoms: _143  and  _144
REMARK   55  A    between atoms: _146  and  _148
REMARK   56  A    between atoms: _148  and  _149
REMARK   57  A    between atoms: _151  and  _153
REMARK   58  A    between atoms: _153  and  _154
REMARK   59  A    between atoms: _153  and  _156
REMARK   60  A    between atoms: _156  and  _157
REMARK   61  A    between atoms: _160  and  _162
REMARK   62  A    between atoms: _162  and  _163
REMARK   63  A    between atoms: _162  and  _165
REMARK   64  A    between atoms: _165  and  _166
REMARK   65  A    between atoms: _171  and  _173
REMARK   66  A    between atoms: _173  and  _174
REMARK   67  A    between atoms: _173  and  _176
REMARK   68  A    between atoms: _176  and  _177
REMARK   69  A    between atoms: _180  and  _182
REMARK   70  A    between atoms: _182  and  _183
REMARK   71  A    between atoms: _182  and  _185
REMARK   72  A    between atoms: _185  and  _186
REMARK   73  A    between atoms: _186  and  _187
REMARK   74  A    between atoms: _192  and  _194
REMARK   75  A    between atoms: _194  and  _195
REMARK   76  A    between atoms: _194  and  _197
REMARK   77  A    between atoms: _197  and  _198
REMARK   78  A    between atoms: _201  and  _203
REMARK   79  A    between atoms: _203  and  _204
REMARK   80  A    between atoms: _203  and  _206
REMARK   81  A    between atoms: _206  and  _207
REMARK   82  A    between atoms: _210  and  _212
REMARK   83  A    between atoms: _212  and  _213
REMARK   84  A    between atoms: _212  and  _215
REMARK   85  A    between atoms: _215  and  _216
REMARK   86  A    between atoms: _221  and  _223
REMARK   87  A    between atoms: _223  and  _224
REMARK   88  A    between atoms: _227  and  _229
REMARK   89  A    between atoms: _229  and  _230
REMARK   90  A    between atoms: _232  and  _234
REMARK   91  A    between atoms: _234  and  _235
REMARK   92  A    between atoms: _237  and  _239
REMARK   93  A    between atoms: _239  and  _240
REMARK   94  A    between atoms: _239  and  _242
REMARK   95  A    between atoms: _242  and  _243
REMARK   96  A    between atoms: _246  and  _248
REMARK   97  A    between atoms: _248  and  _249
REMARK   98  A    between atoms: _248  and  _251
REMARK   99  A    between atoms: _251  and  _252
REMARK  100  A    between atoms: _255  and  _257
REMARK  101  A    between atoms: _257  and  _258
REMARK  102  A    between atoms: _257  and  _260
REMARK  103  A    between atoms: _260  and  _261
REMARK  104  A    between atoms: _266  and  _268
REMARK  105  A    between atoms: _268  and  _269
REMARK  106  A    between atoms: _268  and  _271
REMARK  107  A    between atoms: _271  and  _272
REMARK  108  A    between atoms: _272  and  _273
REMARK  109  A    between atoms: _276  and  _278
REMARK  110  A    between atoms: _278  and  _279
REMARK  111  A    between atoms: _278  and  _281
REMARK  112  A    between atoms: _284  and  _286
REMARK  113  A    between atoms: _286  and  _287
REMARK  114  A    between atoms: _286  and  _289
REMARK  115  A    between atoms: _289  and  _290
REMARK  116  A    between atoms: _295  and  _297
REMARK  117  A    between atoms: _297  and  _298
REMARK  118  A    between atoms: _297  and  _300
REMARK  119  A    between atoms: _300  and  _301
REMARK  120  A    between atoms: _304  and  _306
REMARK  121  A    between atoms: _306  and  _307
REMARK  122  A    between atoms: _306  and  _309
REMARK  123  A    between atoms: _309  and  _310
REMARK  124  A    between atoms: _312  and  _314
REMARK  125  A    between atoms: _314  and  _315
REMARK  126  A    between atoms: _314  and  _317
REMARK  127  A    between atoms: _317  and  _318
REMARK  128  A    between atoms: _323  and  _325
REMARK  129  A    between atoms: _325  and  _326
REMARK  130  A    between atoms: _325  and  _328
REMARK  131  A    between atoms: _331  and  _333
REMARK  132  A    between atoms: _333  and  _334
REMARK  133  A    between atoms: _333  and  _336
REMARK  134  A    between atoms: _336  and  _337
REMARK  135  A    between atoms: _342  and  _344
REMARK  136  A    between atoms: _344  and  _345
REMARK  137  A    between atoms: _344  and  _347
REMARK  138  A    between atoms: _347  and  _348
REMARK  139  A    between atoms: _348  and  _349
REMARK  140  A    between atoms: _349  and  _350
REMARK  141  A    between atoms: _359  and  _361
REMARK  142  A    between atoms: _361  and  _362
REMARK  143  A    between atoms: _361  and  _364
REMARK  144  A    between atoms: _364  and  _365
REMARK  145  A    between atoms: _365  and  _366
REMARK  146  A    between atoms: _369  and  _371
REMARK  147  A    between atoms: _371  and  _372
REMARK  148  A    between atoms: _371  and  _374
REMARK  149  A    between atoms: _374  and  _375
REMARK  150  A    between atoms: _381  and  _383
REMARK  151  A    between atoms: _383  and  _384
REMARK  152  A    between atoms: _383  and  _386
REMARK  153  A    between atoms: _386  and  _387
REMARK  154  A    between atoms: _387  and  _388
REMARK  155  A    between atoms: _388  and  _389
REMARK  156  A    between atoms: _398  and  _400
REMARK  157  A    between atoms: _400  and  _401
REMARK  158  A    between atoms: _400  and  _403
REMARK  159  A    between atoms: _403  and  _404
REMARK  160  A    between atoms: _404  and  _405
REMARK  161  A    between atoms: _405  and  _406
REMARK  162  A    between atoms: _415  and  _417
REMARK  163  A    between atoms: _417  and  _418
REMARK  164  A    between atoms: _417  and  _420
REMARK  165  A    between atoms: _420  and  _421
REMARK  166  A    between atoms: _426  and  _428
REMARK  167  A    between atoms: _428  and  _429
REMARK  168  A    between atoms: _428  and  _431
REMARK  169  A    between atoms: _431  and  _432
REMARK  170  A    between atoms: _435  and  _437
REMARK  171  A    between atoms: _437  and  _438
REMARK  172  A    between atoms: _437  and  _440
REMARK  173  A    between atoms: _443  and  _445
REMARK  174  A    between atoms: _445  and  _446
REMARK  175  A    between atoms: _448  and  _450
REMARK  176  A    between atoms: _450  and  _451
REMARK  177  A    between atoms: _450  and  _453
REMARK  178  A    between atoms: _453  and  _454
REMARK  179  A    between atoms: _457  and  _459
REMARK  180  A    between atoms: _459  and  _460
REMARK  181  A    between atoms: _462  and  _464
REMARK  182  A    between atoms: _464  and  _465
REMARK  183  A    between atoms: _464  and  _467
REMARK  184  A    between atoms: _467  and  _468
REMARK  185  A    between atoms: _471  and  _473
REMARK  186  A    between atoms: _473  and  _474
REMARK  187  A    between atoms: _473  and  _476
REMARK  188  A    between atoms: _476  and  _477
REMARK  189  A    between atoms: _482  and  _483
REMARK  190  A    between atoms: _485  and  _487
REMARK  191  A    between atoms: _487  and  _488
REMARK  192  A    between atoms: _487  and  _490
REMARK  193  A    between atoms: _490  and  _491
REMARK  194  A    between atoms: _496  and  _498
REMARK  195  A    between atoms: _498  and  _499
REMARK  196  A    between atoms: _498  and  _501
REMARK  197  A    between atoms: _504  and  _506
REMARK  198  A    between atoms: _506  and  _507
REMARK  199  A    between atoms: _510  and  _512
REMARK  200  A    between atoms: _512  and  _513
REMARK  201  A    between atoms: _512  and  _515
REMARK  202  A    between atoms: _515  and  _516
REMARK  203  A    between atoms: _519  and  _521
REMARK  204  A    between atoms: _521  and  _522
REMARK  205  A    between atoms: _521  and  _524
REMARK  206  A    between atoms: _524  and  _525
REMARK  207  A    between atoms: _525  and  _526
REMARK  208  A    between atoms: _526  and  _527
REMARK  209  A    between atoms: _536  and  _538
REMARK  210  A    between atoms: _538  and  _539
REMARK  211  A    between atoms: _538  and  _541
REMARK  212  A    between atoms: _541  and  _542
REMARK  213  A    between atoms: _545  and  _547
REMARK  214  A    between atoms: _547  and  _548
REMARK  215  A    between atoms: _551  and  _553
REMARK  216  A    between atoms: _553  and  _554
REMARK  217  A    between atoms: _553  and  _556
REMARK  218  A    between atoms: _558  and  _560
REMARK  219  A    between atoms: _560  and  _561
REMARK  220  A    between atoms: _564  and  _566
REMARK  221  A    between atoms: _566  and  _567
REMARK  222  A    between atoms: _566  and  _569
REMARK  223  A    between atoms: _569  and  _570
REMARK  224  A    between atoms: _570  and  _571
REMARK                            x       y       z     vdW  Elec       q    Type
REMARK                         _______ _______ _______ _____ _____    ______ ____
ROOT
ATOM      1  CB  GLN A   1      20.218  48.705   0.318  0.00  0.00    +0.035 C 
ENDROOT
BRANCH   1   2
ATOM      2  CA  GLN A   1      18.943  47.926   0.653  0.00  0.00    +0.134 C 
BRANCH   2   3
ATOM      3  N   GLN A   1      18.207  47.594  -0.571  0.00  0.00    -0.239 NA
ATOM      4  H   GLN A   1      17.716  48.353  -1.086  0.00  0.00    +0.142 HD
ENDBRANCH   2   3
BRANCH   2   5
ATOM      5  C   GLN A   1      18.084  48.776   1.555  0.00  0.00    +0.224 C 
ATOM      6  O   GLN A   1      17.351  49.646   1.075  0.00  0.00    -0.287 OA
ENDBRANCH   2   5
ENDBRANCH   1   2
BRANCH   1   7
ATOM      7  CG  GLN A   1      21.173  48.892   1.499  0.00  0.00    +0.087 C 
BRANCH   7   8
ATOM      8  CD  GLN A   1      20.816  50.081   2.419  0.00  0.00    +0.219 C 
ATOM      9  NE2 GLN A   1      21.016  49.910   3.735  0.00  0.00    -0.329 N 
ATOM     10 HE21 GLN A   1      20.813  50.686   4.397  0.00  0.00    +0.145 HD
ATOM     11 HE22 GLN A   1      21.374  49.001   4.093  0.00  0.00    +0.145 HD
ATOM     12  OE1 GLN A   1      20.391  51.145   1.945  0.00  0.00    -0.275 OA
ENDBRANCH   7   8
ENDBRANCH   1   7
TORSDOF 5
REMARK  Name = ../refined-set-2016/4b6p/4b6p_pocket.pdb
REMARK  224 active torsions:
REMARK  status: ('A' for Active; 'I' for Inactive)
REMARK    1  A    between atoms: _1  and  _3
REMARK    2  A    between atoms: _3  and  _4
REMARK    3  A    between atoms: _3  and  _6
REMARK    4  A    between atoms: _6  and  _7
REMARK    5  A    between atoms: _12  and  _14
REMARK    6  A    between atoms: _14  and  _15
REMARK    7  A    between atoms: _18  and  _19
REMARK    8  A    between atoms: _24  and  _26
REMARK    9  A    between atoms: _26  and  _27
REMARK   10  A    between atoms: _26  and  _29
REMARK   11  A    between atoms: _29  and  _30
REMARK   12  A    between atoms: _35  and  _37
REMARK   13  A    between atoms: _37  and  _38
REMARK   14  A    between atoms: _37  and  _40
REMARK   15  A    between atoms: _40  and  _41
REMARK   16  A    between atoms: _44  and  _46
REMARK   17  A    between atoms: _46  and  _47
REMARK   18  A    between atoms: _49  and  _51
REMARK   19  A    between atoms: _51  and  _52
REMARK   20  A    between atoms: _51  and  _54
REMARK   21  A    between atoms: _54  and  _55
REMARK   22  A    between atoms: _55  and  _56
REMARK   23  A    between atoms: _56  and  _57
REMARK   24  A    between atoms: _66  and  _68
REMARK   25  A    between atoms: _68  and  _69
REMARK   26  A    between atoms: _68  and  _71
REMARK   27  A    between atoms: _71  and  _72
REMARK   28  A    between atoms: _75  and  _77
REMARK   29  A    between atoms: _77  and  _78
REMARK   30  A    between atoms: _80  and  _82
REMARK   31  A    between atoms: _82  and  _83
REMARK   32  A    between atoms: _82  and  _85
REMARK   33  A    between atoms: _85  and  _86
REMARK   34  A    between atoms: _86  and  _87
REMARK   35  A    between atoms: _87  and  _88
REMARK   36  A    between atoms: _97  and  _99
REMARK   37  A    between atoms: _99  and  _100
REMARK   38  A    between atoms: _99  and  _102
REMARK   39  A    between atoms: _102  and  _103
REMARK   40  A    between atoms: _103  and  _104
REMARK   41  A    between atoms: _104  and  _105
REMARK   42  A    between atoms: _114  and  _116
REMARK   43  A    between atoms: _116  and  _117
REMARK   44  A    between atoms: _116  and  _119
REMARK   45  A    between atoms: _119  and  _120
REMARK   46  A    between atoms: _120  and  _121
REMARK   47  A    between atoms: _124  and  _126
REMARK   48  A    between atoms: _126  and  _127
REMARK   49  A    between atoms: _126  and  _129
REMARK   50  A    between atoms: _132  and  _134
REMARK   51  A    between atoms: _134  and  _135
REMARK   52  A    between atoms: _134  and  _137
REMARK   53  A    between atoms: _137  and  _138
REMARK   54  A    between atoms: _143  and  _144
REMARK   55  A    between atoms: _146  and  _148
REMARK   56  A    between atoms: _148  and  _149
REMARK   57  A    between atoms: _151  and  _153
REMARK   58  A    between atoms: _153  and  _154
REMARK   59  A    between atoms: _153  and  _156
REMARK   60  A    between atoms: _156  and  _157
REMARK   61  A    between atoms: _160  and  _162
REMARK   62  A    between atoms: _162  and  _163
REMARK   63  A    between atoms: _162  and  _165
REMARK   64  A    between atoms: _165  and  _166
REMARK   65  A    between atoms: _171  and  _173
REMARK   66  A    between atoms: _173  and  _174
REMARK   67  A    between atoms: _173  and  _176
REMARK   68  A    between atoms: _176  and  _177
REMARK   69  A    between atoms: _180  and  _182
REMARK   70  A    between atoms: _182  and  _183
REMARK   71  A    between atoms: _182  and  _185
REMARK   72  A    between atoms: _185  and  _186
REMARK   73  A    between atoms: _186  and  _187
REMARK   74  A    between atoms: _192  and  _194
REMARK   75  A    between atoms: _194  and  _195
REMARK   76  A    between atoms: _194  and  _197
REMARK   77  A    between atoms: _197  and  _198
REMARK   78  A    between atoms: _201  and  _203
REMARK   79  A    between atoms: _203  and  _204
REMARK   80  A    between atoms: _203  and  _206
REMARK   81  A    between atoms: _206  and  _207
REMARK   82  A    between atoms: _210  and  _212
REMARK   83  A    between atoms: _212  and  _213
REMARK   84  A    between atoms: _212  and  _215
REMARK   85  A    between atoms: _215  and  _216
REMARK   86  A    between atoms: _221  and  _223
REMARK   87  A    between atoms: _223  and  _224
REMARK   88  A    between atoms: _227  and  _229
REMARK   89  A    between atoms: _229  and  _230
REMARK   90  A    between atoms: _232  and  _234
REMARK   91  A    between atoms: _234  and  _235
REMARK   92  A    between atoms: _237  and  _239
REMARK   93  A    between atoms: _239  and  _240
REMARK   94  A    between atoms: _239  and  _242
REMARK   95  A    between atoms: _242  and  _243
REMARK   96  A    between atoms: _246  and  _248
REMARK   97  A    between atoms: _248  and  _249
REMARK   98  A    between atoms: _248  and  _251
REMARK   99  A    between atoms: _251  and  _252
REMARK  100  A    between atoms: _255  and  _257
REMARK  101  A    between atoms: _257  and  _258
REMARK  102  A    between atoms: _257  and  _260
REMARK  103  A    between atoms: _260  and  _261
REMARK  104  A    between atoms: _266  and  _268
REMARK  105  A    between atoms: _268  and  _269
REMARK  106  A    between atoms: _268  and  _271
REMARK  107  A    between atoms: _271  and  _272
REMARK  108  A    between atoms: _272  and  _273
REMARK  109  A    between atoms: _276  and  _278
REMARK  110  A    between atoms: _278  and  _279
REMARK  111  A    between atoms: _278  and  _281
REMARK  112  A    between atoms: _284  and  _286
REMARK  113  A    between atoms: _286  and  _287
REMARK  114  A    between atoms: _286  and  _289
REMARK  115  A    between atoms: _289  and  _290
REMARK  116  A    between atoms: _295  and  _297
REMARK  117  A    between atoms: _297  and  _298
REMARK  118  A    between atoms: _297  and  _300
REMARK  119  A    between atoms: _300  and  _301
REMARK  120  A    between atoms: _304  and  _306
REMARK  121  A    between atoms: _306  and  _307
REMARK  122  A    between atoms: _306  and  _309
REMARK  123  A    between atoms: _309  and  _310
REMARK  124  A    between atoms: _312  and  _314
REMARK  125  A    between atoms: _314  and  _315
REMARK  126  A    between atoms: _314  and  _317
REMARK  127  A    between atoms: _317  and  _318
REMARK  128  A    between atoms: _323  and  _325
REMARK  129  A    between atoms: _325  and  _326
REMARK  130  A    between atoms: _325  and  _328
REMARK  131  A    between atoms: _331  and  _333
REMARK  132  A    between atoms: _333  and  _334
REMARK  133  A    between atoms: _333  and  _336
REMARK  134  A    between atoms: _336  and  _337
REMARK  135  A    between atoms: _342  and  _344
REMARK  136  A    between atoms: _344  and  _345
REMARK  137  A    between atoms: _344  and  _347
REMARK  138  A    between atoms: _347  and  _348
REMARK  139  A    between atoms: _348  and  _349
REMARK  140  A    between atoms: _349  and  _350
REMARK  141  A    between atoms: _359  and  _361
REMARK  142  A    between atoms: _361  and  _362
REMARK  143  A    between atoms: _361  and  _364
REMARK  144  A    between atoms: _364  and  _365
REMARK  145  A    between atoms: _365  and  _366
REMARK  146  A    between atoms: _369  and  _371
REMARK  147  A    between atoms: _371  and  _372
REMARK  148  A    between atoms: _371  and  _374
REMARK  149  A    between atoms: _374  and  _375
REMARK  150  A    between atoms: _381  and  _383
REMARK  151  A    between atoms: _383  and  _384
REMARK  152  A    between atoms: _383  and  _386
REMARK  153  A    between atoms: _386  and  _387
REMARK  154  A    between atoms: _387  and  _388
REMARK  155  A    between atoms: _388  and  _389
REMARK  156  A    between atoms: _398  and  _400
REMARK  157  A    between atoms: _400  and  _401
REMARK  158  A    between atoms: _400  and  _403
REMARK  159  A    between atoms: _403  and  _404
REMARK  160  A    between atoms: _404  and  _405
REMARK  161  A    between atoms: _405  and  _406
REMARK  162  A    between atoms: _415  and  _417
REMARK  163  A    between atoms: _417  and  _418
REMARK  164  A    between atoms: _417  and  _420
REMARK  165  A    between atoms: _420  and  _421
REMARK  166  A    between atoms: _426  and  _428
REMARK  167  A    between atoms: _428  and  _429
REMARK  168  A    between atoms: _428  and  _431
REMARK  169  A    between atoms: _431  and  _432
REMARK  170  A    between atoms: _435  and  _437
REMARK  171  A    between atoms: _437  and  _438
REMARK  172  A    between atoms: _437  and  _440
REMARK  173  A    between atoms: _443  and  _445
REMARK  174  A    between atoms: _445  and  _446
REMARK  175  A    between atoms: _448  and  _450
REMARK  176  A    between atoms: _450  and  _451
REMARK  177  A    between atoms: _450  and  _453
REMARK  178  A    between atoms: _453  and  _454
REMARK  179  A    between atoms: _457  and  _459
REMARK  180  A    between atoms: _459  and  _460
REMARK  181  A    between atoms: _462  and  _464
REMARK  182  A    between atoms: _464  and  _465
REMARK  183  A    between atoms: _464  and  _467
REMARK  184  A    between atoms: _467  and  _468
REMARK  185  A    between atoms: _471  and  _473
REMARK  186  A    between atoms: _473  and  _474
REMARK  187  A    between atoms: _473  and  _476
REMARK  188  A    between atoms: _476  and  _477
REMARK  189  A    between atoms: _482  and  _483
REMARK  190  A    between atoms: _485  and  _487
REMARK  191  A    between atoms: _487  and  _488
REMARK  192  A    between atoms: _487  and  _490
REMARK  193  A    between atoms: _490  and  _491
REMARK  194  A    between atoms: _496  and  _498
REMARK  195  A    between atoms: _498  and  _499
REMARK  196  A    between atoms: _498  and  _501
REMARK  197  A    between atoms: _504  and  _506
REMARK  198  A    between atoms: _506  and  _507
REMARK  199  A    between atoms: _510  and  _512
REMARK  200  A    between atoms: _512  and  _513
REMARK  201  A    between atoms: _512  and  _515
REMARK  202  A    between atoms: _515  and  _516
REMARK  203  A    between atoms: _519  and  _521
REMARK  204  A    between atoms: _521  and  _522
REMARK  205  A    between atoms: _521  and  _524
REMARK  206  A    between atoms: _524  and  _525
REMARK  207  A    between atoms: _525  and  _526
REMARK  208  A    between atoms: _526  and  _527
REMARK  209  A    between atoms: _536  and  _538
REMARK  210  A    between atoms: _538  and  _539
REMARK  211  A    between atoms: _538  and  _541
REMARK  212  A    between atoms: _541  and  _542
REMARK  213  A    between atoms: _545  and  _547
REMARK  214  A    between atoms: _547  and  _548
REMARK  215  A    between atoms: _551  and  _553
REMARK  216  A    between atoms: _553  and  _554
REMARK  217  A    between atoms: _553  and  _556
REMARK  218  A    between atoms: _558  and  _560
REMARK  219  A    between atoms: _560  and  _561
REMARK  220  A    between atoms: _564  and  _566
REMARK  221  A    between atoms: _566  and  _567
REMARK  222  A    between atoms: _566  and  _569
REMARK  223  A    between atoms: _569  and  _570
REMARK  224  A    between atoms: _570  and  _571
REMARK                            x       y       z     vdW  Elec       q    Type
REMARK                         _______ _______ _______ _____ _____    ______ ____
ROOT
ATOM      1  CA  ASP A   1      18.572  50.608   7.292  0.00  0.00    +0.144 C 
ENDROOT
BRANCH   1   2
ATOM      2  N   ASP A   1      18.081  50.519   5.897  0.00  0.00    -0.239 NA
ATOM      3  H   ASP A   1      17.678  51.366   5.448  0.00  0.00    +0.142 HD
ENDBRANCH   1   2
BRANCH   1   4
ATOM      4  C   ASP A   1      17.500  50.215   8.311  0.00  0.00    +0.225 C 
ATOM      5  O   ASP A   1      17.764  50.197   9.521  0.00  0.00    -0.287 OA
ENDBRANCH   1   4
BRANCH   1   6
ATOM      6  CB  ASP A   1      19.075  52.014   7.613  0.00  0.00    +0.139 C 
BRANCH   6   7
ATOM      7  CG  ASP A   1      20.386  52.388   6.902  0.00  0.00    +0.367 C 
ATOM      8  OD2 ASP A   1      20.678  53.603   6.908  0.00  0.00    -0.246 OA
ATOM      9  OD1 ASP A   1      21.135  51.521   6.387  0.00  0.00    -0.246 OA
ENDBRANCH   6   7
ENDBRANCH   1   6
TORSDOF 4
REMARK  Name = ../refined-set-2016/4b6p/4b6p_pocket.pdb
REMARK  224 active torsions:
REMARK  status: ('A' for Active; 'I' for Inactive)
REMARK    1  A    between atoms: _1  and  _3
REMARK    2  A    between atoms: _3  and  _4
REMARK    3  A    between atoms: _3  and  _6
REMARK    4  A    between atoms: _6  and  _7
REMARK    5  A    between atoms: _12  and  _14
REMARK    6  A    between atoms: _14  and  _15
REMARK    7  A    between atoms: _18  and  _19
REMARK    8  A    between atoms: _24  and  _26
REMARK    9  A    between atoms: _26  and  _27
REMARK   10  A    between atoms: _26  and  _29
REMARK   11  A    between atoms: _29  and  _30
REMARK   12  A    between atoms: _35  and  _37
REMARK   13  A    between atoms: _37  and  _38
REMARK   14  A    between atoms: _37  and  _40
REMARK   15  A    between atoms: _40  and  _41
REMARK   16  A    between atoms: _44  and  _46
REMARK   17  A    between atoms: _46  and  _47
REMARK   18  A    between atoms: _49  and  _51
REMARK   19  A    between atoms: _51  and  _52
REMARK   20  A    between atoms: _51  and  _54
REMARK   21  A    between atoms: _54  and  _55
REMARK   22  A    between atoms: _55  and  _56
REMARK   23  A    between atoms: _56  and  _57
REMARK   24  A    between atoms: _66  and  _68
REMARK   25  A    between atoms: _68  and  _69
REMARK   26  A    between atoms: _68  and  _71
REMARK   27  A    between atoms: _71  and  _72
REMARK   28  A    between atoms: _75  and  _77
REMARK   29  A    between atoms: _77  and  _78
REMARK   30  A    between atoms: _80  and  _82
REMARK   31  A    between atoms: _82  and  _83
REMARK   32  A    between atoms: _82  and  _85
REMARK   33  A    between atoms: _85  and  _86
REMARK   34  A    between atoms: _86  and  _87
REMARK   35  A    between atoms: _87  and  _88
REMARK   36  A    between atoms: _97  and  _99
REMARK   37  A    between atoms: _99  and  _100
REMARK   38  A    between atoms: _99  and  _102
REMARK   39  A    between atoms: _102  and  _103
REMARK   40  A    between atoms: _103  and  _104
REMARK   41  A    between atoms: _104  and  _105
REMARK   42  A    between atoms: _114  and  _116
REMARK   43  A    between atoms: _116  and  _117
REMARK   44  A    between atoms: _116  and  _119
REMARK   45  A    between atoms: _119  and  _120
REMARK   46  A    between atoms: _120  and  _121
REMARK   47  A    between atoms: _124  and  _126
REMARK   48  A    between atoms: _126  and  _127
REMARK   49  A    between atoms: _126  and  _129
REMARK   50  A    between atoms: _132  and  _134
REMARK   51  A    between atoms: _134  and  _135
REMARK   52  A    between atoms: _134  and  _137
REMARK   53  A    between atoms: _137  and  _138
REMARK   54  A    between atoms: _143  and  _144
REMARK   55  A    between atoms: _146  and  _148
REMARK   56  A    between atoms: _148  and  _149
REMARK   57  A    between atoms: _151  and  _153
REMARK   58  A    between atoms: _153  and  _154
REMARK   59  A    between atoms: _153  and  _156
REMARK   60  A    between atoms: _156  and  _157
REMARK   61  A    between atoms: _160  and  _162
REMARK   62  A    between atoms: _162  and  _163
REMARK   63  A    between atoms: _162  and  _165
REMARK   64  A    between atoms: _165  and  _166
REMARK   65  A    between atoms: _171  and  _173
REMARK   66  A    between atoms: _173  and  _174
REMARK   67  A    between atoms: _173  and  _176
REMARK   68  A    between atoms: _176  and  _177
REMARK   69  A    between atoms: _180  and  _182
REMARK   70  A    between atoms: _182  and  _183
REMARK   71  A    between atoms: _182  and  _185
REMARK   72  A    between atoms: _185  and  _186
REMARK   73  A    between atoms: _186  and  _187
REMARK   74  A    between atoms: _192  and  _194
REMARK   75  A    between atoms: _194  and  _195
REMARK   76  A    between atoms: _194  and  _197
REMARK   77  A    between atoms: _197  and  _198
REMARK   78  A    between atoms: _201  and  _203
REMARK   79  A    between atoms: _203  and  _204
REMARK   80  A    between atoms: _203  and  _206
REMARK   81  A    between atoms: _206  and  _207
REMARK   82  A    between atoms: _210  and  _212
REMARK   83  A    between atoms: _212  and  _213
REMARK   84  A    between atoms: _212  and  _215
REMARK   85  A    between atoms: _215  and  _216
REMARK   86  A    between atoms: _221  and  _223
REMARK   87  A    between atoms: _223  and  _224
REMARK   88  A    between atoms: _227  and  _229
REMARK   89  A    between atoms: _229  and  _230
REMARK   90  A    between atoms: _232  and  _234
REMARK   91  A    between atoms: _234  and  _235
REMARK   92  A    between atoms: _237  and  _239
REMARK   93  A    between atoms: _239  and  _240
REMARK   94  A    between atoms: _239  and  _242
REMARK   95  A    between atoms: _242  and  _243
REMARK   96  A    between atoms: _246  and  _248
REMARK   97  A    between atoms: _248  and  _249
REMARK   98  A    between atoms: _248  and  _251
REMARK   99  A    between atoms: _251  and  _252
REMARK  100  A    between atoms: _255  and  _257
REMARK  101  A    between atoms: _257  and  _258
REMARK  102  A    between atoms: _257  and  _260
REMARK  103  A    between atoms: _260  and  _261
REMARK  104  A    between atoms: _266  and  _268
REMARK  105  A    between atoms: _268  and  _269
REMARK  106  A    between atoms: _268  and  _271
REMARK  107  A    between atoms: _271  and  _272
REMARK  108  A    between atoms: _272  and  _273
REMARK  109  A    between atoms: _276  and  _278
REMARK  110  A    between atoms: _278  and  _279
REMARK  111  A    between atoms: _278  and  _281
REMARK  112  A    between atoms: _284  and  _286
REMARK  113  A    between atoms: _286  and  _287
REMARK  114  A    between atoms: _286  and  _289
REMARK  115  A    between atoms: _289  and  _290
REMARK  116  A    between atoms: _295  and  _297
REMARK  117  A    between atoms: _297  and  _298
REMARK  118  A    between atoms: _297  and  _300
REMARK  119  A    between atoms: _300  and  _301
REMARK  120  A    between atoms: _304  and  _306
REMARK  121  A    between atoms: _306  and  _307
REMARK  122  A    between atoms: _306  and  _309
REMARK  123  A    between atoms: _309  and  _310
REMARK  124  A    between atoms: _312  and  _314
REMARK  125  A    between atoms: _314  and  _315
REMARK  126  A    between atoms: _314  and  _317
REMARK  127  A    between atoms: _317  and  _318
REMARK  128  A    between atoms: _323  and  _325
REMARK  129  A    between atoms: _325  and  _326
REMARK  130  A    between atoms: _325  and  _328
REMARK  131  A    between atoms: _331  and  _333
REMARK  132  A    between atoms: _333  and  _334
REMARK  133  A    between atoms: _333  and  _336
REMARK  134  A    between atoms: _336  and  _337
REMARK  135  A    between atoms: _342  and  _344
REMARK  136  A    between atoms: _344  and  _345
REMARK  137  A    between atoms: _344  and  _347
REMARK  138  A    between atoms: _347  and  _348
REMARK  139  A    between atoms: _348  and  _349
REMARK  140  A    between atoms: _349  and  _350
REMARK  141  A    between atoms: _359  and  _361
REMARK  142  A    between atoms: _361  and  _362
REMARK  143  A    between atoms: _361  and  _364
REMARK  144  A    between atoms: _364  and  _365
REMARK  145  A    between atoms: _365  and  _366
REMARK  146  A    between atoms: _369  and  _371
REMARK  147  A    between atoms: _371  and  _372
REMARK  148  A    between atoms: _371  and  _374
REMARK  149  A    between atoms: _374  and  _375
REMARK  150  A    between atoms: _381  and  _383
REMARK  151  A    between atoms: _383  and  _384
REMARK  152  A    between atoms: _383  and  _386
REMARK  153  A    between atoms: _386  and  _387
REMARK  154  A    between atoms: _387  and  _388
REMARK  155  A    between atoms: _388  and  _389
REMARK  156  A    between atoms: _398  and  _400
REMARK  157  A    between atoms: _400  and  _401
REMARK  158  A    between atoms: _400  and  _403
REMARK  159  A    between atoms: _403  and  _404
REMARK  160  A    between atoms: _404  and  _405
REMARK  161  A    between atoms: _405  and  _406
REMARK  162  A    between atoms: _415  and  _417
REMARK  163  A    between atoms: _417  and  _418
REMARK  164  A    between atoms: _417  and  _420
REMARK  165  A    between atoms: _420  and  _421
REMARK  166  A    between atoms: _426  and  _428
REMARK  167  A    between atoms: _428  and  _429
REMARK  168  A    between atoms: _428  and  _431
REMARK  169  A    between atoms: _431  and  _432
REMARK  170  A    between atoms: _435  and  _437
REMARK  171  A    between atoms: _437  and  _438
REMARK  172  A    between atoms: _437  and  _440
REMARK  173  A    between atoms: _443  and  _445
REMARK  174  A    between atoms: _445  and  _446
REMARK  175  A    between atoms: _448  and  _450
REMARK  176  A    between atoms: _450  and  _451
REMARK  177  A    between atoms: _450  and  _453
REMARK  178  A    between atoms: _453  and  _454
REMARK  179  A    between atoms: _457  and  _459
REMARK  180  A    between atoms: _459  and  _460
REMARK  181  A    between atoms: _462  and  _464
REMARK  182  A    between atoms: _464  and  _465
REMARK  183  A    between atoms: _464  and  _467
REMARK  184  A    between atoms: _467  and  _468
REMARK  185  A    between atoms: _471  and  _473
REMARK  186  A    between atoms: _473  and  _474
REMARK  187  A    between atoms: _473  and  _476
REMARK  188  A    between atoms: _476  and  _477
REMARK  189  A    between atoms: _482  and  _483
REMARK  190  A    between atoms: _485  and  _487
REMARK  191  A    between atoms: _487  and  _488
REMARK  192  A    between atoms: _487  and  _490
REMARK  193  A    between atoms: _490  and  _491
REMARK  194  A    between atoms: _496  and  _498
REMARK  195  A    between atoms: _498  and  _499
REMARK  196  A    between atoms: _498  and  _501
REMARK  197  A    between atoms: _504  and  _506
REMARK  198  A    between atoms: _506  and  _507
REMARK  199  A    between atoms: _510  and  _512
REMARK  200  A    between atoms: _512  and  _513
REMARK  201  A    between atoms: _512  and  _515
REMARK  202  A    between atoms: _515  and  _516
REMARK  203  A    between atoms: _519  and  _521
REMARK  204  A    between atoms: _521  and  _522
REMARK  205  A    between atoms: _521  and  _524
REMARK  206  A    between atoms: _524  and  _525
REMARK  207  A    between atoms: _525  and  _526
REMARK  208  A    between atoms: _526  and  _527
REMARK  209  A    between atoms: _536  and  _538
REMARK  210  A    between atoms: _538  and  _539
REMARK  211  A    between atoms: _538  and  _541
REMARK  212  A    between atoms: _541  and  _542
REMARK  213  A    between atoms: _545  and  _547
REMARK  214  A    between atoms: _547  and  _548
REMARK  215  A    between atoms: _551  and  _553
REMARK  216  A    between atoms: _553  and  _554
REMARK  217  A    between atoms: _553  and  _556
REMARK  218  A    between atoms: _558  and  _560
REMARK  219  A    between atoms: _560  and  _561
REMARK  220  A    between atoms: _564  and  _566
REMARK  221  A    between atoms: _566  and  _567
REMARK  222  A    between atoms: _566  and  _569
REMARK  223  A    between atoms: _569  and  _570
REMARK  224  A    between atoms: _570  and  _571
REMARK                            x       y       z     vdW  Elec       q    Type
REMARK                         _______ _______ _______ _____ _____    ______ ____
ROOT
ATOM      1  C   GLY A   4      24.886  43.964   9.749  0.00  0.00    +0.243 C 
ATOM      2  N   GLY A   5      24.774  44.964  10.622  0.00  0.00    -0.295 N 
ATOM      3  H   GLY A   5      24.609  45.925  10.261  0.00  0.00    +0.150 HD
ATOM      4  O   GLY A   4      24.963  42.781  10.092  0.00  0.00    -0.273 OA
ENDROOT
BRANCH   2   5
ATOM      5  CA  GLY A   5      24.874  44.765  12.063  0.00  0.00    +0.176 C 
BRANCH   5   6
ATOM      6  C   GLY A   5      23.845  43.832  12.649  0.00  0.00    +0.243 C 
ATOM      7  O   GLY A   5      24.095  43.213  13.688  0.00  0.00    -0.273 OA
ATOM      8  N   LEU A   6      22.669  43.760  12.004  0.00  0.00    -0.297 N 
ATOM      9  H   LEU A   6      22.548  44.313  11.132  0.00  0.00    +0.150 HD
BRANCH   8  10
ATOM     10  CA  LEU A   6      21.553  42.943  12.468  0.00  0.00    +0.149 C 
BRANCH  10  11
ATOM     11  C   LEU A   6      21.892  41.433  12.389  0.00  0.00    +0.241 C 
ATOM     12  O   LEU A   6      21.231  40.577  13.012  0.00  0.00    -0.273 OA
ATOM     13  N   THR A   7      22.905  41.112  11.575  0.00  0.00    -0.295 N 
ATOM     14  H   THR A   7      23.317  41.850  10.969  0.00  0.00    +0.150 HD
BRANCH  13  15
ATOM     15  CA  THR A   7      23.449  39.765  11.510  0.00  0.00    +0.176 C 
BRANCH  15  16
ATOM     16  C   THR A   7      23.688  39.236  12.901  0.00  0.00    +0.243 C 
ATOM     17  N   HIS A   8      24.217  40.094  13.783  0.00  0.00    -0.298 N 
ATOM     18  H   HIS A   8      24.237  41.105  13.542  0.00  0.00    +0.150 HD
ATOM     19  O   THR A   7      23.366  38.097  13.178  0.00  0.00    -0.273 OA
BRANCH  17  20
ATOM     20  CA  HIS A   8      24.764  39.675  15.060  0.00  0.00    +0.143 C 
BRANCH  20  21
ATOM     21  C   HIS A   8      23.762  39.849  16.194  0.00  0.00    +0.227 C 
ATOM     22  O   HIS A   8      24.004  39.390  17.308  0.00  0.00    -0.286 OA
ENDBRANCH  20  21
BRANCH  20  23
ATOM     23  CB  HIS A   8      26.052  40.468  15.367  0.00  0.00    +0.075 C 
BRANCH  23  24
ATOM     24  CG  HIS A   8      26.970  40.563  14.200  0.00  0.00    +0.082 A 
ATOM     25  ND1 HIS A   8      27.549  39.456  13.619  0.00  0.00    -0.227 NA
ATOM     26  CE1 HIS A   8      28.285  39.841  12.592  0.00  0.00    +0.199 A 
ATOM     27  NE2 HIS A   8      28.172  41.152  12.466  0.00  0.00    -0.221 NA
ATOM     28  CD2 HIS A   8      27.345  41.623  13.450  0.00  0.00    +0.115 A 
ENDBRANCH  23  24
ENDBRANCH  20  23
ENDBRANCH  17  20
ENDBRANCH  15  16
BRANCH  15  29
ATOM     29  CB  THR A   7      24.785  39.773  10.757  0.00  0.00    +0.137 C 
ATOM     30  CG2 THR A   7      25.372  38.354  10.684  0.00  0.00    +0.034 C 
BRANCH  29  31
ATOM     31  OG1 THR A   7      24.578  40.313   9.446  0.00  0.00    -0.382 OA
ATOM     32  HG1 THR A   7      24.231  41.237   9.522  0.00  0.00    +0.210 HD
ENDBRANCH  29  31
ENDBRANCH  15  29
ENDBRANCH  13  15
ENDBRANCH  10  11
BRANCH  10  33
ATOM     33  CB  LEU A   6      20.321  43.240  11.615  0.00  0.00    +0.029 C 
BRANCH  33  34
ATOM     34  CG  LEU A   6      19.720  44.651  11.693  0.00  0.00    +0.002 C 
ATOM     35  CD2 LEU A   6      19.338  45.002  13.106  0.00  0.00    +0.000 C 
ATOM     36  CD1 LEU A   6      18.505  44.741  10.771  0.00  0.00    +0.000 C 
ENDBRANCH  33  34
ENDBRANCH  10  33
ENDBRANCH   8  10
ENDBRANCH   5   6
ENDBRANCH   2   5
BRANCH   1  37
ATOM     37  CA  GLY A   4      24.804  44.333   8.273  0.00  0.00    +0.176 C 
BRANCH  37  40
ATOM     38  C   ALA A   3      22.771  43.085   7.813  0.00  0.00    +0.241 C 
ATOM     39  O   ALA A   3      22.175  43.751   8.648  0.00  0.00    -0.273 OA
ATOM     40  N   GLY A   4      24.043  43.320   7.531  0.00  0.00    -0.295 N 
ATOM     41  H   GLY A   4      24.509  42.780   6.774  0.00  0.00    +0.150 HD
BRANCH  38  42
ATOM     42  CA  ALA A   3      22.022  41.962   7.081  0.00  0.00    +0.149 C 
ATOM     43  CB  ALA A   3      21.337  41.025   8.102  0.00  0.00    +0.031 C 
BRANCH  42  45
ATOM     44  C   ASN A   2      23.158  41.725   4.942  0.00  0.00    +0.241 C 
ATOM     45  N   ALA A   3      22.836  41.191   6.120  0.00  0.00    -0.297 N 
ATOM     46  H   ALA A   3      23.158  40.232   6.362  0.00  0.00    +0.150 HD
ATOM     47  O   ASN A   2      22.860  42.889   4.632  0.00  0.00    -0.273 OA
BRANCH  44  48
ATOM     48  CA  ASN A   2      23.870  40.818   3.965  0.00  0.00    +0.158 C 
BRANCH  48  51
ATOM     49  C   LEU A   1      22.584  38.878   3.198  0.00  0.00    +0.238 C 
ATOM     50  O   LEU A   1      23.305  38.038   3.765  0.00  0.00    -0.274 OA
ATOM     51  N   ASN A   2      22.848  40.187   3.150  0.00  0.00    -0.297 N 
ATOM     52  H   ASN A   2      22.296  40.781   2.499  0.00  0.00    +0.150 HD
BRANCH  49  53
ATOM     53  CA  LEU A   1      21.322  38.453   2.503  0.00  0.00    +0.145 C 
BRANCH  53  54
ATOM     54  N   LEU A   1      21.601  37.466   1.445  0.00  0.00    -0.238 NA
ATOM     55  H   LEU A   1      22.192  36.635   1.650  0.00  0.00    +0.142 HD
ENDBRANCH  53  54
BRANCH  53  56
ATOM     56  CB  LEU A   1      20.348  37.881   3.540  0.00  0.00    +0.026 C 
BRANCH  56  57
ATOM     57  CG  LEU A   1      20.020  38.695   4.811  0.00  0.00    +0.002 C 
ATOM     58  CD2 LEU A   1      19.104  37.850   5.700  0.00  0.00    +0.000 C 
ATOM     59  CD1 LEU A   1      19.404  40.074   4.529  0.00  0.00    +0.000 C 
ENDBRANCH  56  57
ENDBRANCH  53  56
ENDBRANCH  49  53
ENDBRANCH  48  51
BRANCH  48  60
ATOM     60  CB  ASN A   2      24.849  41.604   3.110  0.00  0.00    +0.114 C 
BRANCH  60  61
ATOM     61  CG  ASN A   2      26.002  42.124   3.901  0.00  0.00    +0.222 C 
ATOM     62  OD1 ASN A   2      25.954  42.149   5.145  0.00  0.00    -0.275 OA
ATOM     63  ND2 ASN A   2      27.072  42.536   3.198  0.00  0.00    -0.329 N 
ATOM     64 HD21 ASN A   2      27.912  42.897   3.693  0.00  0.00    +0.145 HD
ATOM     65 HD22 ASN A   2      27.059  42.494   2.159  0.00  0.00    +0.145 HD
ENDBRANCH  60  61
ENDBRANCH  48  60
ENDBRANCH  44  48
ENDBRANCH  42  45
ENDBRANCH  38  42
ENDBRANCH  37  40
ENDBRANCH   1  37
TORSDOF 26
REMARK  Name = ../refined-set-2016/4b6p/4b6p_pocket.pdb
REMARK  224 active torsions:
REMARK  status: ('A' for Active; 'I' for Inactive)
REMARK    1  A    between atoms: _1  and  _3
REMARK    2  A    between atoms: _3  and  _4
REMARK    3  A    between atoms: _3  and  _6
REMARK    4  A    between atoms: _6  and  _7
REMARK    5  A    between atoms: _12  and  _14
REMARK    6  A    between atoms: _14  and  _15
REMARK    7  A    between atoms: _18  and  _19
REMARK    8  A    between atoms: _24  and  _26
REMARK    9  A    between atoms: _26  and  _27
REMARK   10  A    between atoms: _26  and  _29
REMARK   11  A    between atoms: _29  and  _30
REMARK   12  A    between atoms: _35  and  _37
REMARK   13  A    between atoms: _37  and  _38
REMARK   14  A    between atoms: _37  and  _40
REMARK   15  A    between atoms: _40  and  _41
REMARK   16  A    between atoms: _44  and  _46
REMARK   17  A    between atoms: _46  and  _47
REMARK   18  A    between atoms: _49  and  _51
REMARK   19  A    between atoms: _51  and  _52
REMARK   20  A    between atoms: _51  and  _54
REMARK   21  A    between atoms: _54  and  _55
REMARK   22  A    between atoms: _55  and  _56
REMARK   23  A    between atoms: _56  and  _57
REMARK   24  A    between atoms: _66  and  _68
REMARK   25  A    between atoms: _68  and  _69
REMARK   26  A    between atoms: _68  and  _71
REMARK   27  A    between atoms: _71  and  _72
REMARK   28  A    between atoms: _75  and  _77
REMARK   29  A    between atoms: _77  and  _78
REMARK   30  A    between atoms: _80  and  _82
REMARK   31  A    between atoms: _82  and  _83
REMARK   32  A    between atoms: _82  and  _85
REMARK   33  A    between atoms: _85  and  _86
REMARK   34  A    between atoms: _86  and  _87
REMARK   35  A    between atoms: _87  and  _88
REMARK   36  A    between atoms: _97  and  _99
REMARK   37  A    between atoms: _99  and  _100
REMARK   38  A    between atoms: _99  and  _102
REMARK   39  A    between atoms: _102  and  _103
REMARK   40  A    between atoms: _103  and  _104
REMARK   41  A    between atoms: _104  and  _105
REMARK   42  A    between atoms: _114  and  _116
REMARK   43  A    between atoms: _116  and  _117
REMARK   44  A    between atoms: _116  and  _119
REMARK   45  A    between atoms: _119  and  _120
REMARK   46  A    between atoms: _120  and  _121
REMARK   47  A    between atoms: _124  and  _126
REMARK   48  A    between atoms: _126  and  _127
REMARK   49  A    between atoms: _126  and  _129
REMARK   50  A    between atoms: _132  and  _134
REMARK   51  A    between atoms: _134  and  _135
REMARK   52  A    between atoms: _134  and  _137
REMARK   53  A    between atoms: _137  and  _138
REMARK   54  A    between atoms: _143  and  _144
REMARK   55  A    between atoms: _146  and  _148
REMARK   56  A    between atoms: _148  and  _149
REMARK   57  A    between atoms: _151  and  _153
REMARK   58  A    between atoms: _153  and  _154
REMARK   59  A    between atoms: _153  and  _156
REMARK   60  A    between atoms: _156  and  _157
REMARK   61  A    between atoms: _160  and  _162
REMARK   62  A    between atoms: _162  and  _163
REMARK   63  A    between atoms: _162  and  _165
REMARK   64  A    between atoms: _165  and  _166
REMARK   65  A    between atoms: _171  and  _173
REMARK   66  A    between atoms: _173  and  _174
REMARK   67  A    between atoms: _173  and  _176
REMARK   68  A    between atoms: _176  and  _177
REMARK   69  A    between atoms: _180  and  _182
REMARK   70  A    between atoms: _182  and  _183
REMARK   71  A    between atoms: _182  and  _185
REMARK   72  A    between atoms: _185  and  _186
REMARK   73  A    between atoms: _186  and  _187
REMARK   74  A    between atoms: _192  and  _194
REMARK   75  A    between atoms: _194  and  _195
REMARK   76  A    between atoms: _194  and  _197
REMARK   77  A    between atoms: _197  and  _198
REMARK   78  A    between atoms: _201  and  _203
REMARK   79  A    between atoms: _203  and  _204
REMARK   80  A    between atoms: _203  and  _206
REMARK   81  A    between atoms: _206  and  _207
REMARK   82  A    between atoms: _210  and  _212
REMARK   83  A    between atoms: _212  and  _213
REMARK   84  A    between atoms: _212  and  _215
REMARK   85  A    between atoms: _215  and  _216
REMARK   86  A    between atoms: _221  and  _223
REMARK   87  A    between atoms: _223  and  _224
REMARK   88  A    between atoms: _227  and  _229
REMARK   89  A    between atoms: _229  and  _230
REMARK   90  A    between atoms: _232  and  _234
REMARK   91  A    between atoms: _234  and  _235
REMARK   92  A    between atoms: _237  and  _239
REMARK   93  A    between atoms: _239  and  _240
REMARK   94  A    between atoms: _239  and  _242
REMARK   95  A    between atoms: _242  and  _243
REMARK   96  A    between atoms: _246  and  _248
REMARK   97  A    between atoms: _248  and  _249
REMARK   98  A    between atoms: _248  and  _251
REMARK   99  A    between atoms: _251  and  _252
REMARK  100  A    between atoms: _255  and  _257
REMARK  101  A    between atoms: _257  and  _258
REMARK  102  A    between atoms: _257  and  _260
REMARK  103  A    between atoms: _260  and  _261
REMARK  104  A    between atoms: _266  and  _268
REMARK  105  A    between atoms: _268  and  _269
REMARK  106  A    between atoms: _268  and  _271
REMARK  107  A    between atoms: _271  and  _272
REMARK  108  A    between atoms: _272  and  _273
REMARK  109  A    between atoms: _276  and  _278
REMARK  110  A    between atoms: _278  and  _279
REMARK  111  A    between atoms: _278  and  _281
REMARK  112  A    between atoms: _284  and  _286
REMARK  113  A    between atoms: _286  and  _287
REMARK  114  A    between atoms: _286  and  _289
REMARK  115  A    between atoms: _289  and  _290
REMARK  116  A    between atoms: _295  and  _297
REMARK  117  A    between atoms: _297  and  _298
REMARK  118  A    between atoms: _297  and  _300
REMARK  119  A    between atoms: _300  and  _301
REMARK  120  A    between atoms: _304  and  _306
REMARK  121  A    between atoms: _306  and  _307
REMARK  122  A    between atoms: _306  and  _309
REMARK  123  A    between atoms: _309  and  _310
REMARK  124  A    between atoms: _312  and  _314
REMARK  125  A    between atoms: _314  and  _315
REMARK  126  A    between atoms: _314  and  _317
REMARK  127  A    between atoms: _317  and  _318
REMARK  128  A    between atoms: _323  and  _325
REMARK  129  A    between atoms: _325  and  _326
REMARK  130  A    between atoms: _325  and  _328
REMARK  131  A    between atoms: _331  and  _333
REMARK  132  A    between atoms: _333  and  _334
REMARK  133  A    between atoms: _333  and  _336
REMARK  134  A    between atoms: _336  and  _337
REMARK  135  A    between atoms: _342  and  _344
REMARK  136  A    between atoms: _344  and  _345
REMARK  137  A    between atoms: _344  and  _347
REMARK  138  A    between atoms: _347  and  _348
REMARK  139  A    between atoms: _348  and  _349
REMARK  140  A    between atoms: _349  and  _350
REMARK  141  A    between atoms: _359  and  _361
REMARK  142  A    between atoms: _361  and  _362
REMARK  143  A    between atoms: _361  and  _364
REMARK  144  A    between atoms: _364  and  _365
REMARK  145  A    between atoms: _365  and  _366
REMARK  146  A    between atoms: _369  and  _371
REMARK  147  A    between atoms: _371  and  _372
REMARK  148  A    between atoms: _371  and  _374
REMARK  149  A    between atoms: _374  and  _375
REMARK  150  A    between atoms: _381  and  _383
REMARK  151  A    between atoms: _383  and  _384
REMARK  152  A    between atoms: _383  and  _386
REMARK  153  A    between atoms: _386  and  _387
REMARK  154  A    between atoms: _387  and  _388
REMARK  155  A    between atoms: _388  and  _389
REMARK  156  A    between atoms: _398  and  _400
REMARK  157  A    between atoms: _400  and  _401
REMARK  158  A    between atoms: _400  and  _403
REMARK  159  A    between atoms: _403  and  _404
REMARK  160  A    between atoms: _404  and  _405
REMARK  161  A    between atoms: _405  and  _406
REMARK  162  A    between atoms: _415  and  _417
REMARK  163  A    between atoms: _417  and  _418
REMARK  164  A    between atoms: _417  and  _420
REMARK  165  A    between atoms: _420  and  _421
REMARK  166  A    between atoms: _426  and  _428
REMARK  167  A    between atoms: _428  and  _429
REMARK  168  A    between atoms: _428  and  _431
REMARK  169  A    between atoms: _431  and  _432
REMARK  170  A    between atoms: _435  and  _437
REMARK  171  A    between atoms: _437  and  _438
REMARK  172  A    between atoms: _437  and  _440
REMARK  173  A    between atoms: _443  and  _445
REMARK  174  A    between atoms: _445  and  _446
REMARK  175  A    between atoms: _448  and  _450
REMARK  176  A    between atoms: _450  and  _451
REMARK  177  A    between atoms: _450  and  _453
REMARK  178  A    between atoms: _453  and  _454
REMARK  179  A    between atoms: _457  and  _459
REMARK  180  A    between atoms: _459  and  _460
REMARK  181  A    between atoms: _462  and  _464
REMARK  182  A    between atoms: _464  and  _465
REMARK  183  A    between atoms: _464  and  _467
REMARK  184  A    between atoms: _467  and  _468
REMARK  185  A    between atoms: _471  and  _473
REMARK  186  A    between atoms: _473  and  _474
REMARK  187  A    between atoms: _473  and  _476
REMARK  188  A    between atoms: _476  and  _477
REMARK  189  A    between atoms: _482  and  _483
REMARK  190  A    between atoms: _485  and  _487
REMARK  191  A    between atoms: _487  and  _488
REMARK  192  A    between atoms: _487  and  _490
REMARK  193  A    between atoms: _490  and  _491
REMARK  194  A    between atoms: _496  and  _498
REMARK  195  A    between atoms: _498  and  _499
REMARK  196  A    between atoms: _498  and  _501
REMARK  197  A    between atoms: _504  and  _506
REMARK  198  A    between atoms: _506  and  _507
REMARK  199  A    between atoms: _510  and  _512
REMARK  200  A    between atoms: _512  and  _513
REMARK  201  A    between atoms: _512  and  _515
REMARK  202  A    between atoms: _515  and  _516
REMARK  203  A    between atoms: _519  and  _521
REMARK  204  A    between atoms: _521  and  _522
REMARK  205  A    between atoms: _521  and  _524
REMARK  206  A    between atoms: _524  and  _525
REMARK  207  A    between atoms: _525  and  _526
REMARK  208  A    between atoms: _526  and  _527
REMARK  209  A    between atoms: _536  and  _538
REMARK  210  A    between atoms: _538  and  _539
REMARK  211  A    between atoms: _538  and  _541
REMARK  212  A    between atoms: _541  and  _542
REMARK  213  A    between atoms: _545  and  _547
REMARK  214  A    between atoms: _547  and  _548
REMARK  215  A    between atoms: _551  and  _553
REMARK  216  A    between atoms: _553  and  _554
REMARK  217  A    between atoms: _553  and  _556
REMARK  218  A    between atoms: _558  and  _560
REMARK  219  A    between atoms: _560  and  _561
REMARK  220  A    between atoms: _564  and  _566
REMARK  221  A    between atoms: _566  and  _567
REMARK  222  A    between atoms: _566  and  _569
REMARK  223  A    between atoms: _569  and  _570
REMARK  224  A    between atoms: _570  and  _571
REMARK                            x       y       z     vdW  Elec       q    Type
REMARK                         _______ _______ _______ _____ _____    ______ ____
ROOT
ATOM      1  C   ILE A   4      33.266  41.514   3.145  0.00  0.00    +0.241 C 
ATOM      2  N   SER A   5      33.318  41.968   4.400  0.00  0.00    -0.295 N 
ATOM      3  H   SER A   5      32.487  42.451   4.796  0.00  0.00    +0.150 HD
ATOM      4  O   ILE A   4      34.217  40.917   2.605  0.00  0.00    -0.273 OA
ENDROOT
BRANCH   2   5
ATOM      5  CA  SER A   5      34.507  41.806   5.233  0.00  0.00    +0.178 C 
BRANCH   5   6
ATOM      6  C   SER A   5      34.602  40.389   5.838  0.00  0.00    +0.243 C 
ATOM      7  N   ASN A   6      35.808  40.000   6.259  0.00  0.00    -0.297 N 
ATOM      8  H   ASN A   6      36.641  40.584   6.043  0.00  0.00    +0.150 HD
ATOM      9  O   SER A   5      33.598  39.642   5.906  0.00  0.00    -0.273 OA
BRANCH   7  10
ATOM     10  CA  ASN A   6      35.969  38.765   7.018  0.00  0.00    +0.158 C 
BRANCH  10  11
ATOM     11  C   ASN A   6      35.590  38.999   8.479  0.00  0.00    +0.241 C 
ATOM     12  O   ASN A   6      36.411  39.456   9.267  0.00  0.00    -0.273 OA
ATOM     13  N   VAL A   7      34.341  38.692   8.823  0.00  0.00    -0.297 N 
ATOM     14  H   VAL A   7      33.716  38.264   8.110  0.00  0.00    +0.150 HD
BRANCH  13  15
ATOM     15  CA  VAL A   7      33.814  38.935  10.168  0.00  0.00    +0.149 C 
BRANCH  15  16
ATOM     16  C   VAL A   7      34.614  38.195  11.273  0.00  0.00    +0.241 C 
ATOM     17  O   VAL A   7      34.616  38.618  12.433  0.00  0.00    -0.273 OA
ATOM     18  N   HIS A   8      35.320  37.124  10.914  0.00  0.00    -0.298 N 
ATOM     19  H   HIS A   8      35.312  36.825   9.918  0.00  0.00    +0.150 HD
BRANCH  18  20
ATOM     20  CA  HIS A   8      36.112  36.351  11.888  0.00  0.00    +0.143 C 
BRANCH  20  21
ATOM     21  C   HIS A   8      37.477  36.969  12.181  0.00  0.00    +0.227 C 
ATOM     22  O   HIS A   8      38.192  36.516  13.067  0.00  0.00    -0.286 OA
ENDBRANCH  20  21
BRANCH  20  23
ATOM     23  CB  HIS A   8      36.186  34.864  11.462  0.00  0.00    +0.075 C 
BRANCH  23  24
ATOM     24  CG  HIS A   8      34.829  34.247  11.224  0.00  0.00    +0.082 A 
ATOM     25  ND1 HIS A   8      33.986  33.889  12.250  0.00  0.00    -0.227 NA
ATOM     26  CE1 HIS A   8      32.853  33.422  11.745  0.00  0.00    +0.199 A 
ATOM     27  NE2 HIS A   8      32.936  33.455  10.425  0.00  0.00    -0.221 NA
ATOM     28  CD2 HIS A   8      34.155  33.985  10.077  0.00  0.00    +0.115 A 
ENDBRANCH  23  24
ENDBRANCH  20  23
ENDBRANCH  18  20
ENDBRANCH  15  16
BRANCH  15  29
ATOM     29  CB  VAL A   7      32.263  38.584  10.279  0.00  0.00    +0.027 C 
ATOM     30  CG2 VAL A   7      32.017  37.135  10.023  0.00  0.00    +0.002 C 
ATOM     31  CG1 VAL A   7      31.399  39.437   9.304  0.00  0.00    +0.002 C 
ENDBRANCH  15  29
ENDBRANCH  13  15
ENDBRANCH  10  11
BRANCH  10  32
ATOM     32  CB  ASN A   6      37.401  38.212   6.917  0.00  0.00    +0.114 C 
BRANCH  32  33
ATOM     33  CG  ASN A   6      37.528  36.830   7.533  0.00  0.00    +0.222 C 
ATOM     34  OD1 ASN A   6      36.662  36.404   8.304  0.00  0.00    -0.275 OA
ATOM     35  ND2 ASN A   6      38.610  36.124   7.209  0.00  0.00    -0.329 N 
ATOM     36 HD21 ASN A   6      38.751  35.175   7.610  0.00  0.00    +0.145 HD
ATOM     37 HD22 ASN A   6      39.314  36.522   6.555  0.00  0.00    +0.145 HD
ENDBRANCH  32  33
ENDBRANCH  10  32
ENDBRANCH   7  10
ENDBRANCH   5   6
BRANCH   5  38
ATOM     38  CB  SER A   5      34.505  42.860   6.348  0.00  0.00    +0.166 C 
BRANCH  38  39
ATOM     39  OG  SER A   5      33.515  42.609   7.357  0.00  0.00    -0.380 OA
ATOM     40  H   SER A   5      32.616  42.608   6.942  0.00  0.00    +0.211 HD
ENDBRANCH  38  39
ENDBRANCH   5  38
ENDBRANCH   2   5
BRANCH   1  41
ATOM     41  CA  ILE A   4      31.931  41.706   2.383  0.00  0.00    +0.149 C 
BRANCH  41  43
ATOM     42  C   HIS A   3      30.751  39.887   3.465  0.00  0.00    +0.241 C 
ATOM     43  N   ILE A   4      30.850  41.185   3.183  0.00  0.00    -0.297 N 
ATOM     44  H   ILE A   4      30.129  41.839   3.549  0.00  0.00    +0.150 HD
ATOM     45  O   HIS A   3      31.555  39.030   3.059  0.00  0.00    -0.273 OA
BRANCH  42  46
ATOM     46  CA  HIS A   3      29.530  39.509   4.311  0.00  0.00    +0.155 C 
BRANCH  46  49
ATOM     47  C   VAL A   2      27.576  38.331   3.396  0.00  0.00    +0.241 C 
ATOM     48  O   VAL A   2      26.779  39.158   3.789  0.00  0.00    -0.273 OA
ATOM     49  N   HIS A   3      28.862  38.353   3.698  0.00  0.00    -0.297 N 
ATOM     50  H   HIS A   3      29.431  37.508   3.491  0.00  0.00    +0.150 HD
BRANCH  47  51
ATOM     51  CA  VAL A   2      27.118  37.162   2.563  0.00  0.00    +0.148 C 
BRANCH  51  53
ATOM     52  C   GLU A   1      25.809  35.271   3.360  0.00  0.00    +0.238 C 
ATOM     53  N   VAL A   2      25.924  36.575   3.180  0.00  0.00    -0.297 N 
ATOM     54  H   VAL A   2      25.150  37.200   3.483  0.00  0.00    +0.150 HD
ATOM     55  O   GLU A   1      26.702  34.483   3.026  0.00  0.00    -0.274 OA
BRANCH  52  56
ATOM     56  CA  GLU A   1      24.477  34.782   3.954  0.00  0.00    +0.145 C 
BRANCH  56  57
ATOM     57  N   GLU A   1      23.941  33.671   3.178  0.00  0.00    -0.238 NA
ATOM     58  H   GLU A   1      24.118  32.703   3.513  0.00  0.00    +0.142 HD
ENDBRANCH  56  57
BRANCH  56  59
ATOM     59  CB  GLU A   1      24.636  34.333   5.417  0.00  0.00    +0.038 C 
BRANCH  59  60
ATOM     60  CG  GLU A   1      25.056  35.428   6.401  0.00  0.00    +0.116 C 
BRANCH  60  61
ATOM     61  CD  GLU A   1      25.262  34.912   7.819  0.00  0.00    +0.365 C 
ATOM     62  OE2 GLU A   1      25.718  35.719   8.662  0.00  0.00    -0.246 OA
ATOM     63  OE1 GLU A   1      24.986  33.697   8.078  0.00  0.00    -0.246 OA
ENDBRANCH  60  61
ENDBRANCH  59  60
ENDBRANCH  56  59
ENDBRANCH  52  56
ENDBRANCH  51  53
BRANCH  51  64
ATOM     64  CB  VAL A   2      26.886  37.628   1.118  0.00  0.00    +0.027 C 
ATOM     65  CG2 VAL A   2      28.062  38.481   0.657  0.00  0.00    +0.002 C 
ATOM     66  CG1 VAL A   2      26.671  36.412   0.154  0.00  0.00    +0.002 C 
ENDBRANCH  51  64
ENDBRANCH  47  51
ENDBRANCH  46  49
BRANCH  46  67
ATOM     67  CB  HIS A   3      29.903  39.221   5.775  0.00  0.00    +0.076 C 
BRANCH  67  68
ATOM     68  CG  HIS A   3      28.713  38.840   6.602  0.00  0.00    +0.082 A 
ATOM     69  CD2 HIS A   3      28.310  37.653   7.102  0.00  0.00    +0.115 A 
ATOM     70  NE2 HIS A   3      27.110  37.869   7.737  0.00  0.00    -0.221 NA
ATOM     71  CE1 HIS A   3      26.770  39.135   7.598  0.00  0.00    +0.199 A 
ATOM     72  ND1 HIS A   3      27.729  39.747   6.935  0.00  0.00    -0.227 NA
ENDBRANCH  67  68
ENDBRANCH  46  67
ENDBRANCH  42  46
ENDBRANCH  41  43
BRANCH  41  73
ATOM     73  CB  ILE A   4      31.665  43.190   2.001  0.00  0.00    +0.027 C 
ATOM     74  CG2 ILE A   4      32.880  43.785   1.276  0.00  0.00    +0.002 C 
BRANCH  73  75
ATOM     75  CG1 ILE A   4      30.395  43.308   1.123  0.00  0.00    +0.002 C 
ATOM     76  CD1 ILE A   4      29.987  44.728   0.872  0.00  0.00    +0.000 C 
ENDBRANCH  73  75
ENDBRANCH  41  73
ENDBRANCH   1  41
TORSDOF 31
REMARK  Name = ../refined-set-2016/4b6p/4b6p_pocket.pdb
REMARK  224 active torsions:
REMARK  status: ('A' for Active; 'I' for Inactive)
REMARK    1  A    between atoms: _1  and  _3
REMARK    2  A    between atoms: _3  and  _4
REMARK    3  A    between atoms: _3  and  _6
REMARK    4  A    between atoms: _6  and  _7
REMARK    5  A    between atoms: _12  and  _14
REMARK    6  A    between atoms: _14  and  _15
REMARK    7  A    between atoms: _18  and  _19
REMARK    8  A    between atoms: _24  and  _26
REMARK    9  A    between atoms: _26  and  _27
REMARK   10  A    between atoms: _26  and  _29
REMARK   11  A    between atoms: _29  and  _30
REMARK   12  A    between atoms: _35  and  _37
REMARK   13  A    between atoms: _37  and  _38
REMARK   14  A    between atoms: _37  and  _40
REMARK   15  A    between atoms: _40  and  _41
REMARK   16  A    between atoms: _44  and  _46
REMARK   17  A    between atoms: _46  and  _47
REMARK   18  A    between atoms: _49  and  _51
REMARK   19  A    between atoms: _51  and  _52
REMARK   20  A    between atoms: _51  and  _54
REMARK   21  A    between atoms: _54  and  _55
REMARK   22  A    between atoms: _55  and  _56
REMARK   23  A    between atoms: _56  and  _57
REMARK   24  A    between atoms: _66  and  _68
REMARK   25  A    between atoms: _68  and  _69
REMARK   26  A    between atoms: _68  and  _71
REMARK   27  A    between atoms: _71  and  _72
REMARK   28  A    between atoms: _75  and  _77
REMARK   29  A    between atoms: _77  and  _78
REMARK   30  A    between atoms: _80  and  _82
REMARK   31  A    between atoms: _82  and  _83
REMARK   32  A    between atoms: _82  and  _85
REMARK   33  A    between atoms: _85  and  _86
REMARK   34  A    between atoms: _86  and  _87
REMARK   35  A    between atoms: _87  and  _88
REMARK   36  A    between atoms: _97  and  _99
REMARK   37  A    between atoms: _99  and  _100
REMARK   38  A    between atoms: _99  and  _102
REMARK   39  A    between atoms: _102  and  _103
REMARK   40  A    between atoms: _103  and  _104
REMARK   41  A    between atoms: _104  and  _105
REMARK   42  A    between atoms: _114  and  _116
REMARK   43  A    between atoms: _116  and  _117
REMARK   44  A    between atoms: _116  and  _119
REMARK   45  A    between atoms: _119  and  _120
REMARK   46  A    between atoms: _120  and  _121
REMARK   47  A    between atoms: _124  and  _126
REMARK   48  A    between atoms: _126  and  _127
REMARK   49  A    between atoms: _126  and  _129
REMARK   50  A    between atoms: _132  and  _134
REMARK   51  A    between atoms: _134  and  _135
REMARK   52  A    between atoms: _134  and  _137
REMARK   53  A    between atoms: _137  and  _138
REMARK   54  A    between atoms: _143  and  _144
REMARK   55  A    between atoms: _146  and  _148
REMARK   56  A    between atoms: _148  and  _149
REMARK   57  A    between atoms: _151  and  _153
REMARK   58  A    between atoms: _153  and  _154
REMARK   59  A    between atoms: _153  and  _156
REMARK   60  A    between atoms: _156  and  _157
REMARK   61  A    between atoms: _160  and  _162
REMARK   62  A    between atoms: _162  and  _163
REMARK   63  A    between atoms: _162  and  _165
REMARK   64  A    between atoms: _165  and  _166
REMARK   65  A    between atoms: _171  and  _173
REMARK   66  A    between atoms: _173  and  _174
REMARK   67  A    between atoms: _173  and  _176
REMARK   68  A    between atoms: _176  and  _177
REMARK   69  A    between atoms: _180  and  _182
REMARK   70  A    between atoms: _182  and  _183
REMARK   71  A    between atoms: _182  and  _185
REMARK   72  A    between atoms: _185  and  _186
REMARK   73  A    between atoms: _186  and  _187
REMARK   74  A    between atoms: _192  and  _194
REMARK   75  A    between atoms: _194  and  _195
REMARK   76  A    between atoms: _194  and  _197
REMARK   77  A    between atoms: _197  and  _198
REMARK   78  A    between atoms: _201  and  _203
REMARK   79  A    between atoms: _203  and  _204
REMARK   80  A    between atoms: _203  and  _206
REMARK   81  A    between atoms: _206  and  _207
REMARK   82  A    between atoms: _210  and  _212
REMARK   83  A    between atoms: _212  and  _213
REMARK   84  A    between atoms: _212  and  _215
REMARK   85  A    between atoms: _215  and  _216
REMARK   86  A    between atoms: _221  and  _223
REMARK   87  A    between atoms: _223  and  _224
REMARK   88  A    between atoms: _227  and  _229
REMARK   89  A    between atoms: _229  and  _230
REMARK   90  A    between atoms: _232  and  _234
REMARK   91  A    between atoms: _234  and  _235
REMARK   92  A    between atoms: _237  and  _239
REMARK   93  A    between atoms: _239  and  _240
REMARK   94  A    between atoms: _239  and  _242
REMARK   95  A    between atoms: _242  and  _243
REMARK   96  A    between atoms: _246  and  _248
REMARK   97  A    between atoms: _248  and  _249
REMARK   98  A    between atoms: _248  and  _251
REMARK   99  A    between atoms: _251  and  _252
REMARK  100  A    between atoms: _255  and  _257
REMARK  101  A    between atoms: _257  and  _258
REMARK  102  A    between atoms: _257  and  _260
REMARK  103  A    between atoms: _260  and  _261
REMARK  104  A    between atoms: _266  and  _268
REMARK  105  A    between atoms: _268  and  _269
REMARK  106  A    between atoms: _268  and  _271
REMARK  107  A    between atoms: _271  and  _272
REMARK  108  A    between atoms: _272  and  _273
REMARK  109  A    between atoms: _276  and  _278
REMARK  110  A    between atoms: _278  and  _279
REMARK  111  A    between atoms: _278  and  _281
REMARK  112  A    between atoms: _284  and  _286
REMARK  113  A    between atoms: _286  and  _287
REMARK  114  A    between atoms: _286  and  _289
REMARK  115  A    between atoms: _289  and  _290
REMARK  116  A    between atoms: _295  and  _297
REMARK  117  A    between atoms: _297  and  _298
REMARK  118  A    between atoms: _297  and  _300
REMARK  119  A    between atoms: _300  and  _301
REMARK  120  A    between atoms: _304  and  _306
REMARK  121  A    between atoms: _306  and  _307
REMARK  122  A    between atoms: _306  and  _309
REMARK  123  A    between atoms: _309  and  _310
REMARK  124  A    between atoms: _312  and  _314
REMARK  125  A    between atoms: _314  and  _315
REMARK  126  A    between atoms: _314  and  _317
REMARK  127  A    between atoms: _317  and  _318
REMARK  128  A    between atoms: _323  and  _325
REMARK  129  A    between atoms: _325  and  _326
REMARK  130  A    between atoms: _325  and  _328
REMARK  131  A    between atoms: _331  and  _333
REMARK  132  A    between atoms: _333  and  _334
REMARK  133  A    between atoms: _333  and  _336
REMARK  134  A    between atoms: _336  and  _337
REMARK  135  A    between atoms: _342  and  _344
REMARK  136  A    between atoms: _344  and  _345
REMARK  137  A    between atoms: _344  and  _347
REMARK  138  A    between atoms: _347  and  _348
REMARK  139  A    between atoms: _348  and  _349
REMARK  140  A    between atoms: _349  and  _350
REMARK  141  A    between atoms: _359  and  _361
REMARK  142  A    between atoms: _361  and  _362
REMARK  143  A    between atoms: _361  and  _364
REMARK  144  A    between atoms: _364  and  _365
REMARK  145  A    between atoms: _365  and  _366
REMARK  146  A    between atoms: _369  and  _371
REMARK  147  A    between atoms: _371  and  _372
REMARK  148  A    between atoms: _371  and  _374
REMARK  149  A    between atoms: _374  and  _375
REMARK  150  A    between atoms: _381  and  _383
REMARK  151  A    between atoms: _383  and  _384
REMARK  152  A    between atoms: _383  and  _386
REMARK  153  A    between atoms: _386  and  _387
REMARK  154  A    between atoms: _387  and  _388
REMARK  155  A    between atoms: _388  and  _389
REMARK  156  A    between atoms: _398  and  _400
REMARK  157  A    between atoms: _400  and  _401
REMARK  158  A    between atoms: _400  and  _403
REMARK  159  A    between atoms: _403  and  _404
REMARK  160  A    between atoms: _404  and  _405
REMARK  161  A    between atoms: _405  and  _406
REMARK  162  A    between atoms: _415  and  _417
REMARK  163  A    between atoms: _417  and  _418
REMARK  164  A    between atoms: _417  and  _420
REMARK  165  A    between atoms: _420  and  _421
REMARK  166  A    between atoms: _426  and  _428
REMARK  167  A    between atoms: _428  and  _429
REMARK  168  A    between atoms: _428  and  _431
REMARK  169  A    between atoms: _431  and  _432
REMARK  170  A    between atoms: _435  and  _437
REMARK  171  A    between atoms: _437  and  _438
REMARK  172  A    between atoms: _437  and  _440
REMARK  173  A    between atoms: _443  and  _445
REMARK  174  A    between atoms: _445  and  _446
REMARK  175  A    between atoms: _448  and  _450
REMARK  176  A    between atoms: _450  and  _451
REMARK  177  A    between atoms: _450  and  _453
REMARK  178  A    between atoms: _453  and  _454
REMARK  179  A    between atoms: _457  and  _459
REMARK  180  A    between atoms: _459  and  _460
REMARK  181  A    between atoms: _462  and  _464
REMARK  182  A    between atoms: _464  and  _465
REMARK  183  A    between atoms: _464  and  _467
REMARK  184  A    between atoms: _467  and  _468
REMARK  185  A    between atoms: _471  and  _473
REMARK  186  A    between atoms: _473  and  _474
REMARK  187  A    between atoms: _473  and  _476
REMARK  188  A    between atoms: _476  and  _477
REMARK  189  A    between atoms: _482  and  _483
REMARK  190  A    between atoms: _485  and  _487
REMARK  191  A    between atoms: _487  and  _488
REMARK  192  A    between atoms: _487  and  _490
REMARK  193  A    between atoms: _490  and  _491
REMARK  194  A    between atoms: _496  and  _498
REMARK  195  A    between atoms: _498  and  _499
REMARK  196  A    between atoms: _498  and  _501
REMARK  197  A    between atoms: _504  and  _506
REMARK  198  A    between atoms: _506  and  _507
REMARK  199  A    between atoms: _510  and  _512
REMARK  200  A    between atoms: _512  and  _513
REMARK  201  A    between atoms: _512  and  _515
REMARK  202  A    between atoms: _515  and  _516
REMARK  203  A    between atoms: _519  and  _521
REMARK  204  A    between atoms: _521  and  _522
REMARK  205  A    between atoms: _521  and  _524
REMARK  206  A    between atoms: _524  and  _525
REMARK  207  A    between atoms: _525  and  _526
REMARK  208  A    between atoms: _526  and  _527
REMARK  209  A    between atoms: _536  and  _538
REMARK  210  A    between atoms: _538  and  _539
REMARK  211  A    between atoms: _538  and  _541
REMARK  212  A    between atoms: _541  and  _542
REMARK  213  A    between atoms: _545  and  _547
REMARK  214  A    between atoms: _547  and  _548
REMARK  215  A    between atoms: _551  and  _553
REMARK  216  A    between atoms: _553  and  _554
REMARK  217  A    between atoms: _553  and  _556
REMARK  218  A    between atoms: _558  and  _560
REMARK  219  A    between atoms: _560  and  _561
REMARK  220  A    between atoms: _564  and  _566
REMARK  221  A    between atoms: _566  and  _567
REMARK  222  A    between atoms: _566  and  _569
REMARK  223  A    between atoms: _569  and  _570
REMARK  224  A    between atoms: _570  and  _571
REMARK                            x       y       z     vdW  Elec       q    Type
REMARK                         _______ _______ _______ _____ _____    ______ ____
ROOT
ATOM      1  CA  ARG A   1      37.326  41.553  13.556  0.00  0.00    +0.145 C 
ENDROOT
BRANCH   1   2
ATOM      2  C   ARG A   1      37.023  41.295  15.043  0.00  0.00    +0.238 C 
ATOM      3  O   ARG A   1      37.657  40.415  15.653  0.00  0.00    -0.274 OA
ATOM      4  N   GLU A   2      36.094  42.047  15.632  0.00  0.00    -0.298 N 
ATOM      5  H   GLU A   2      35.601  42.781  15.085  0.00  0.00    +0.150 HD
BRANCH   4   6
ATOM      6  CA  GLU A   2      35.767  41.849  17.025  0.00  0.00    +0.137 C 
BRANCH   6   7
ATOM      7  C   GLU A   2      35.012  40.546  17.188  0.00  0.00    +0.227 C 
ATOM      8  O   GLU A   2      34.302  40.101  16.292  0.00  0.00    -0.286 OA
ENDBRANCH   6   7
BRANCH   6   9
ATOM      9  CB  GLU A   2      34.915  42.994  17.587  0.00  0.00    +0.039 C 
BRANCH   9  10
ATOM     10  CG  GLU A   2      35.544  44.383  17.547  0.00  0.00    +0.116 C 
BRANCH  10  11
ATOM     11  CD  GLU A   2      35.149  45.131  16.294  0.00  0.00    +0.365 C 
ATOM     12  OE2 GLU A   2      35.304  46.377  16.274  0.00  0.00    -0.246 OA
ATOM     13  OE1 GLU A   2      34.701  44.477  15.319  0.00  0.00    -0.246 OA
ENDBRANCH  10  11
ENDBRANCH   9  10
ENDBRANCH   6   9
ENDBRANCH   4   6
ENDBRANCH   1   2
BRANCH   1  14
ATOM     14  N   ARG A   1      37.702  40.290  12.950  0.00  0.00    -0.238 NA
ATOM     15  H   ARG A   1      37.002  39.521  12.934  0.00  0.00    +0.142 HD
ENDBRANCH   1  14
BRANCH   1  16
ATOM     16  CB  ARG A   1      36.130  42.111  12.784  0.00  0.00    +0.030 C 
BRANCH  16  17
ATOM     17  CG  ARG A   1      36.478  42.399  11.295  0.00  0.00    +0.045 C 
BRANCH  17  18
ATOM     18  CD  ARG A   1      35.280  42.965  10.537  0.00  0.00    +0.174 C 
BRANCH  18  19
ATOM     19  NE  ARG A   1      35.032  44.335  10.950  0.00  0.00    -0.265 N 
ATOM     20  HE  ARG A   1      35.539  44.685  11.788  0.00  0.00    +0.259 HD
ATOM     21  CZ  ARG A   1      34.206  45.173  10.337  0.00  0.00    +0.342 C 
ATOM     22  NH2 ARG A   1      34.095  46.406  10.789  0.00  0.00    -0.292 N 
ATOM     23 HH21 ARG A   1      34.650  46.709  11.614  0.00  0.00    +0.255 HD
ATOM     24 HH22 ARG A   1      33.452  47.076  10.320  0.00  0.00    +0.255 HD
ATOM     25  NH1 ARG A   1      33.496  44.803   9.287  0.00  0.00    -0.292 N 
ATOM     26 HH11 ARG A   1      33.576  43.833   8.920  0.00  0.00    +0.255 HD
ATOM     27 HH12 ARG A   1      32.856  45.482   8.826  0.00  0.00    +0.255 HD
ENDBRANCH  18  19
ENDBRANCH  17  18
ENDBRANCH  16  17
ENDBRANCH   1  16
TORSDOF 11
REMARK  Name = ../refined-set-2016/4b6p/4b6p_pocket.pdb
REMARK  224 active torsions:
REMARK  status: ('A' for Active; 'I' for Inactive)
REMARK    1  A    between atoms: _1  and  _3
REMARK    2  A    between atoms: _3  and  _4
REMARK    3  A    between atoms: _3  and  _6
REMARK    4  A    between atoms: _6  and  _7
REMARK    5  A    between atoms: _12  and  _14
REMARK    6  A    between atoms: _14  and  _15
REMARK    7  A    between atoms: _18  and  _19
REMARK    8  A    between atoms: _24  and  _26
REMARK    9  A    between atoms: _26  and  _27
REMARK   10  A    between atoms: _26  and  _29
REMARK   11  A    between atoms: _29  and  _30
REMARK   12  A    between atoms: _35  and  _37
REMARK   13  A    between atoms: _37  and  _38
REMARK   14  A    between atoms: _37  and  _40
REMARK   15  A    between atoms: _40  and  _41
REMARK   16  A    between atoms: _44  and  _46
REMARK   17  A    between atoms: _46  and  _47
REMARK   18  A    between atoms: _49  and  _51
REMARK   19  A    between atoms: _51  and  _52
REMARK   20  A    between atoms: _51  and  _54
REMARK   21  A    between atoms: _54  and  _55
REMARK   22  A    between atoms: _55  and  _56
REMARK   23  A    between atoms: _56  and  _57
REMARK   24  A    between atoms: _66  and  _68
REMARK   25  A    between atoms: _68  and  _69
REMARK   26  A    between atoms: _68  and  _71
REMARK   27  A    between atoms: _71  and  _72
REMARK   28  A    between atoms: _75  and  _77
REMARK   29  A    between atoms: _77  and  _78
REMARK   30  A    between atoms: _80  and  _82
REMARK   31  A    between atoms: _82  and  _83
REMARK   32  A    between atoms: _82  and  _85
REMARK   33  A    between atoms: _85  and  _86
REMARK   34  A    between atoms: _86  and  _87
REMARK   35  A    between atoms: _87  and  _88
REMARK   36  A    between atoms: _97  and  _99
REMARK   37  A    between atoms: _99  and  _100
REMARK   38  A    between atoms: _99  and  _102
REMARK   39  A    between atoms: _102  and  _103
REMARK   40  A    between atoms: _103  and  _104
REMARK   41  A    between atoms: _104  and  _105
REMARK   42  A    between atoms: _114  and  _116
REMARK   43  A    between atoms: _116  and  _117
REMARK   44  A    between atoms: _116  and  _119
REMARK   45  A    between atoms: _119  and  _120
REMARK   46  A    between atoms: _120  and  _121
REMARK   47  A    between atoms: _124  and  _126
REMARK   48  A    between atoms: _126  and  _127
REMARK   49  A    between atoms: _126  and  _129
REMARK   50  A    between atoms: _132  and  _134
REMARK   51  A    between atoms: _134  and  _135
REMARK   52  A    between atoms: _134  and  _137
REMARK   53  A    between atoms: _137  and  _138
REMARK   54  A    between atoms: _143  and  _144
REMARK   55  A    between atoms: _146  and  _148
REMARK   56  A    between atoms: _148  and  _149
REMARK   57  A    between atoms: _151  and  _153
REMARK   58  A    between atoms: _153  and  _154
REMARK   59  A    between atoms: _153  and  _156
REMARK   60  A    between atoms: _156  and  _157
REMARK   61  A    between atoms: _160  and  _162
REMARK   62  A    between atoms: _162  and  _163
REMARK   63  A    between atoms: _162  and  _165
REMARK   64  A    between atoms: _165  and  _166
REMARK   65  A    between atoms: _171  and  _173
REMARK   66  A    between atoms: _173  and  _174
REMARK   67  A    between atoms: _173  and  _176
REMARK   68  A    between atoms: _176  and  _177
REMARK   69  A    between atoms: _180  and  _182
REMARK   70  A    between atoms: _182  and  _183
REMARK   71  A    between atoms: _182  and  _185
REMARK   72  A    between atoms: _185  and  _186
REMARK   73  A    between atoms: _186  and  _187
REMARK   74  A    between atoms: _192  and  _194
REMARK   75  A    between atoms: _194  and  _195
REMARK   76  A    between atoms: _194  and  _197
REMARK   77  A    between atoms: _197  and  _198
REMARK   78  A    between atoms: _201  and  _203
REMARK   79  A    between atoms: _203  and  _204
REMARK   80  A    between atoms: _203  and  _206
REMARK   81  A    between atoms: _206  and  _207
REMARK   82  A    between atoms: _210  and  _212
REMARK   83  A    between atoms: _212  and  _213
REMARK   84  A    between atoms: _212  and  _215
REMARK   85  A    between atoms: _215  and  _216
REMARK   86  A    between atoms: _221  and  _223
REMARK   87  A    between atoms: _223  and  _224
REMARK   88  A    between atoms: _227  and  _229
REMARK   89  A    between atoms: _229  and  _230
REMARK   90  A    between atoms: _232  and  _234
REMARK   91  A    between atoms: _234  and  _235
REMARK   92  A    between atoms: _237  and  _239
REMARK   93  A    between atoms: _239  and  _240
REMARK   94  A    between atoms: _239  and  _242
REMARK   95  A    between atoms: _242  and  _243
REMARK   96  A    between atoms: _246  and  _248
REMARK   97  A    between atoms: _248  and  _249
REMARK   98  A    between atoms: _248  and  _251
REMARK   99  A    between atoms: _251  and  _252
REMARK  100  A    between atoms: _255  and  _257
REMARK  101  A    between atoms: _257  and  _258
REMARK  102  A    between atoms: _257  and  _260
REMARK  103  A    between atoms: _260  and  _261
REMARK  104  A    between atoms: _266  and  _268
REMARK  105  A    between atoms: _268  and  _269
REMARK  106  A    between atoms: _268  and  _271
REMARK  107  A    between atoms: _271  and  _272
REMARK  108  A    between atoms: _272  and  _273
REMARK  109  A    between atoms: _276  and  _278
REMARK  110  A    between atoms: _278  and  _279
REMARK  111  A    between atoms: _278  and  _281
REMARK  112  A    between atoms: _284  and  _286
REMARK  113  A    between atoms: _286  and  _287
REMARK  114  A    between atoms: _286  and  _289
REMARK  115  A    between atoms: _289  and  _290
REMARK  116  A    between atoms: _295  and  _297
REMARK  117  A    between atoms: _297  and  _298
REMARK  118  A    between atoms: _297  and  _300
REMARK  119  A    between atoms: _300  and  _301
REMARK  120  A    between atoms: _304  and  _306
REMARK  121  A    between atoms: _306  and  _307
REMARK  122  A    between atoms: _306  and  _309
REMARK  123  A    between atoms: _309  and  _310
REMARK  124  A    between atoms: _312  and  _314
REMARK  125  A    between atoms: _314  and  _315
REMARK  126  A    between atoms: _314  and  _317
REMARK  127  A    between atoms: _317  and  _318
REMARK  128  A    between atoms: _323  and  _325
REMARK  129  A    between atoms: _325  and  _326
REMARK  130  A    between atoms: _325  and  _328
REMARK  131  A    between atoms: _331  and  _333
REMARK  132  A    between atoms: _333  and  _334
REMARK  133  A    between atoms: _333  and  _336
REMARK  134  A    between atoms: _336  and  _337
REMARK  135  A    between atoms: _342  and  _344
REMARK  136  A    between atoms: _344  and  _345
REMARK  137  A    between atoms: _344  and  _347
REMARK  138  A    between atoms: _347  and  _348
REMARK  139  A    between atoms: _348  and  _349
REMARK  140  A    between atoms: _349  and  _350
REMARK  141  A    between atoms: _359  and  _361
REMARK  142  A    between atoms: _361  and  _362
REMARK  143  A    between atoms: _361  and  _364
REMARK  144  A    between atoms: _364  and  _365
REMARK  145  A    between atoms: _365  and  _366
REMARK  146  A    between atoms: _369  and  _371
REMARK  147  A    between atoms: _371  and  _372
REMARK  148  A    between atoms: _371  and  _374
REMARK  149  A    between atoms: _374  and  _375
REMARK  150  A    between atoms: _381  and  _383
REMARK  151  A    between atoms: _383  and  _384
REMARK  152  A    between atoms: _383  and  _386
REMARK  153  A    between atoms: _386  and  _387
REMARK  154  A    between atoms: _387  and  _388
REMARK  155  A    between atoms: _388  and  _389
REMARK  156  A    between atoms: _398  and  _400
REMARK  157  A    between atoms: _400  and  _401
REMARK  158  A    between atoms: _400  and  _403
REMARK  159  A    between atoms: _403  and  _404
REMARK  160  A    between atoms: _404  and  _405
REMARK  161  A    between atoms: _405  and  _406
REMARK  162  A    between atoms: _415  and  _417
REMARK  163  A    between atoms: _417  and  _418
REMARK  164  A    between atoms: _417  and  _420
REMARK  165  A    between atoms: _420  and  _421
REMARK  166  A    between atoms: _426  and  _428
REMARK  167  A    between atoms: _428  and  _429
REMARK  168  A    between atoms: _428  and  _431
REMARK  169  A    between atoms: _431  and  _432
REMARK  170  A    between atoms: _435  and  _437
REMARK  171  A    between atoms: _437  and  _438
REMARK  172  A    between atoms: _437  and  _440
REMARK  173  A    between atoms: _443  and  _445
REMARK  174  A    between atoms: _445  and  _446
REMARK  175  A    between atoms: _448  and  _450
REMARK  176  A    between atoms: _450  and  _451
REMARK  177  A    between atoms: _450  and  _453
REMARK  178  A    between atoms: _453  and  _454
REMARK  179  A    between atoms: _457  and  _459
REMARK  180  A    between atoms: _459  and  _460
REMARK  181  A    between atoms: _462  and  _464
REMARK  182  A    between atoms: _464  and  _465
REMARK  183  A    between atoms: _464  and  _467
REMARK  184  A    between atoms: _467  and  _468
REMARK  185  A    between atoms: _471  and  _473
REMARK  186  A    between atoms: _473  and  _474
REMARK  187  A    between atoms: _473  and  _476
REMARK  188  A    between atoms: _476  and  _477
REMARK  189  A    between atoms: _482  and  _483
REMARK  190  A    between atoms: _485  and  _487
REMARK  191  A    between atoms: _487  and  _488
REMARK  192  A    between atoms: _487  and  _490
REMARK  193  A    between atoms: _490  and  _491
REMARK  194  A    between atoms: _496  and  _498
REMARK  195  A    between atoms: _498  and  _499
REMARK  196  A    between atoms: _498  and  _501
REMARK  197  A    between atoms: _504  and  _506
REMARK  198  A    between atoms: _506  and  _507
REMARK  199  A    between atoms: _510  and  _512
REMARK  200  A    between atoms: _512  and  _513
REMARK  201  A    between atoms: _512  and  _515
REMARK  202  A    between atoms: _515  and  _516
REMARK  203  A    between atoms: _519  and  _521
REMARK  204  A    between atoms: _521  and  _522
REMARK  205  A    between atoms: _521  and  _524
REMARK  206  A    between atoms: _524  and  _525
REMARK  207  A    between atoms: _525  and  _526
REMARK  208  A    between atoms: _526  and  _527
REMARK  209  A    between atoms: _536  and  _538
REMARK  210  A    between atoms: _538  and  _539
REMARK  211  A    between atoms: _538  and  _541
REMARK  212  A    between atoms: _541  and  _542
REMARK  213  A    between atoms: _545  and  _547
REMARK  214  A    between atoms: _547  and  _548
REMARK  215  A    between atoms: _551  and  _553
REMARK  216  A    between atoms: _553  and  _554
REMARK  217  A    between atoms: _553  and  _556
REMARK  218  A    between atoms: _558  and  _560
REMARK  219  A    between atoms: _560  and  _561
REMARK  220  A    between atoms: _564  and  _566
REMARK  221  A    between atoms: _566  and  _567
REMARK  222  A    between atoms: _566  and  _569
REMARK  223  A    between atoms: _569  and  _570
REMARK  224  A    between atoms: _570  and  _571
REMARK                            x       y       z     vdW  Elec       q    Type
REMARK                         _______ _______ _______ _____ _____    ______ ____
ROOT
ATOM      1  C   ARG A   2      31.138  38.249  14.389  0.00  0.00    +0.241 C 
ATOM      2  N   ARG A   3      31.695  37.401  15.227  0.00  0.00    -0.297 N 
ATOM      3  H   ARG A   3      31.998  37.736  16.164  0.00  0.00    +0.150 HD
ATOM      4  O   ARG A   2      30.738  37.887  13.288  0.00  0.00    -0.273 OA
ENDROOT
BRANCH   2   5
ATOM      5  CA  ARG A   3      31.899  35.989  14.867  0.00  0.00    +0.149 C 
BRANCH   5   6
ATOM      6  C   ARG A   3      30.684  35.115  15.210  0.00  0.00    +0.241 C 
ATOM      7  N   HIS A   4      29.595  35.716  15.673  0.00  0.00    -0.298 N 
ATOM      8  H   HIS A   4      29.642  36.728  15.907  0.00  0.00    +0.150 HD
ATOM      9  O   ARG A   3      30.732  33.910  15.060  0.00  0.00    -0.273 OA
BRANCH   7  10
ATOM     10  CA  HIS A   4      28.341  35.012  15.865  0.00  0.00    +0.143 C 
BRANCH  10  11
ATOM     11  C   HIS A   4      27.270  35.683  15.023  0.00  0.00    +0.227 C 
ATOM     12  O   HIS A   4      27.092  36.912  15.084  0.00  0.00    -0.286 OA
ENDBRANCH  10  11
BRANCH  10  13
ATOM     13  CB  HIS A   4      28.065  34.978  17.369  0.00  0.00    +0.075 C 
BRANCH  13  14
ATOM     14  CG  HIS A   4      29.285  34.609  18.157  0.00  0.00    +0.082 A 
ATOM     15  CD2 HIS A   4      30.167  35.371  18.850  0.00  0.00    +0.115 A 
ATOM     16  NE2 HIS A   4      31.150  34.529  19.319  0.00  0.00    -0.221 NA
ATOM     17  CE1 HIS A   4      30.886  33.296  18.922  0.00  0.00    +0.199 A 
ATOM     18  ND1 HIS A   4      29.774  33.317  18.207  0.00  0.00    -0.227 NA
ENDBRANCH  13  14
ENDBRANCH  10  13
ENDBRANCH   7  10
ENDBRANCH   5   6
BRANCH   5  19
ATOM     19  CB  ARG A   3      33.161  35.472  15.558  0.00  0.00    +0.033 C 
BRANCH  19  20
ATOM     20  CG  ARG A   3      34.347  36.409  15.311  0.00  0.00    +0.045 C 
BRANCH  20  21
ATOM     21  CD  ARG A   3      35.655  35.805  15.772  0.00  0.00    +0.174 C 
BRANCH  21  22
ATOM     22  NE  ARG A   3      35.915  34.512  15.113  0.00  0.00    -0.265 N 
ATOM     23  CZ  ARG A   3      36.969  33.723  15.350  0.00  0.00    +0.342 C 
ATOM     24  NH2 ARG A   3      37.906  34.074  16.243  0.00  0.00    -0.292 N 
ATOM     25 HH21 ARG A   3      37.819  34.971  16.763  0.00  0.00    +0.255 HD
ATOM     26 HH22 ARG A   3      38.719  33.450  16.416  0.00  0.00    +0.255 HD
ATOM     27  NH1 ARG A   3      37.100  32.585  14.669  0.00  0.00    -0.292 N 
ATOM     28 HH11 ARG A   3      37.916  31.964  14.845  0.00  0.00    +0.255 HD
ATOM     29 HH12 ARG A   3      36.387  32.318  13.961  0.00  0.00    +0.255 HD
ATOM     30  HE  ARG A   3      35.224  34.187  14.407  0.00  0.00    +0.259 HD
ENDBRANCH  21  22
ENDBRANCH  20  21
ENDBRANCH  19  20
ENDBRANCH   5  19
ENDBRANCH   2   5
BRANCH   1  31
ATOM     31  CA  ARG A   2      30.986  39.713  14.855  0.00  0.00    +0.149 C 
BRANCH  31  34
ATOM     32  C   PHE A   1      30.447  39.677  17.273  0.00  0.00    +0.239 C 
ATOM     33  O   PHE A   1      29.317  39.227  17.100  0.00  0.00    -0.274 OA
ATOM     34  N   ARG A   2      31.288  39.966  16.275  0.00  0.00    -0.297 N 
ATOM     35  H   ARG A   2      32.206  40.393  16.514  0.00  0.00    +0.150 HD
BRANCH  32  36
ATOM     36  CA  PHE A   1      30.930  39.919  18.693  0.00  0.00    +0.149 C 
BRANCH  36  37
ATOM     37  N   PHE A   1      32.384  39.863  18.863  0.00  0.00    -0.238 NA
ATOM     38  H   PHE A   1      32.910  40.696  19.195  0.00  0.00    +0.142 HD
ENDBRANCH  36  37
BRANCH  36  39
ATOM     39  CB  PHE A   1      30.310  41.210  19.258  0.00  0.00    +0.053 C 
BRANCH  39  40
ATOM     40  CG  PHE A   1      30.721  42.482  18.579  0.00  0.00    -0.020 A 
ATOM     41  CD2 PHE A   1      31.611  43.341  19.199  0.00  0.00    -0.004 A 
ATOM     42  CE2 PHE A   1      31.952  44.537  18.629  0.00  0.00    -0.000 A 
ATOM     43  CZ  PHE A   1      31.398  44.919  17.449  0.00  0.00    -0.000 A 
ATOM     44  CE1 PHE A   1      30.475  44.092  16.816  0.00  0.00    -0.000 A 
ATOM     45  CD1 PHE A   1      30.121  42.892  17.399  0.00  0.00    -0.004 A 
ENDBRANCH  39  40
ENDBRANCH  36  39
ENDBRANCH  32  36
ENDBRANCH  31  34
BRANCH  31  46
ATOM     46  CB  ARG A   2      31.855  40.606  13.984  0.00  0.00    +0.033 C 
BRANCH  46  47
ATOM     47  CG  ARG A   2      31.598  42.094  14.190  0.00  0.00    +0.045 C 
BRANCH  47  48
ATOM     48  CD  ARG A   2      32.299  42.933  13.111  0.00  0.00    +0.174 C 
BRANCH  48  49
ATOM     49  NE  ARG A   2      32.460  44.298  13.591  0.00  0.00    -0.265 N 
ATOM     50  HE  ARG A   2      33.350  44.533  14.076  0.00  0.00    +0.259 HD
ATOM     51  CZ  ARG A   2      31.559  45.270  13.459  0.00  0.00    +0.342 C 
ATOM     52  NH2 ARG A   2      31.824  46.459  13.980  0.00  0.00    -0.292 N 
ATOM     53 HH21 ARG A   2      32.722  46.619  14.480  0.00  0.00    +0.255 HD
ATOM     54 HH22 ARG A   2      31.134  47.232  13.889  0.00  0.00    +0.255 HD
ATOM     55  NH1 ARG A   2      30.404  45.059  12.800  0.00  0.00    -0.292 N 
ATOM     56 HH11 ARG A   2      29.711  45.829  12.706  0.00  0.00    +0.255 HD
ATOM     57 HH12 ARG A   2      30.205  44.126  12.385  0.00  0.00    +0.255 HD
ENDBRANCH  48  49
ENDBRANCH  47  48
ENDBRANCH  46  47
ENDBRANCH  31  46
ENDBRANCH   1  31
TORSDOF 20
REMARK  Name = ../refined-set-2016/4b6p/4b6p_pocket.pdb
REMARK  224 active torsions:
REMARK  status: ('A' for Active; 'I' for Inactive)
REMARK    1  A    between atoms: _1  and  _3
REMARK    2  A    between atoms: _3  and  _4
REMARK    3  A    between atoms: _3  and  _6
REMARK    4  A    between atoms: _6  and  _7
REMARK    5  A    between atoms: _12  and  _14
REMARK    6  A    between atoms: _14  and  _15
REMARK    7  A    between atoms: _18  and  _19
REMARK    8  A    between atoms: _24  and  _26
REMARK    9  A    between atoms: _26  and  _27
REMARK   10  A    between atoms: _26  and  _29
REMARK   11  A    between atoms: _29  and  _30
REMARK   12  A    between atoms: _35  and  _37
REMARK   13  A    between atoms: _37  and  _38
REMARK   14  A    between atoms: _37  and  _40
REMARK   15  A    between atoms: _40  and  _41
REMARK   16  A    between atoms: _44  and  _46
REMARK   17  A    between atoms: _46  and  _47
REMARK   18  A    between atoms: _49  and  _51
REMARK   19  A    between atoms: _51  and  _52
REMARK   20  A    between atoms: _51  and  _54
REMARK   21  A    between atoms: _54  and  _55
REMARK   22  A    between atoms: _55  and  _56
REMARK   23  A    between atoms: _56  and  _57
REMARK   24  A    between atoms: _66  and  _68
REMARK   25  A    between atoms: _68  and  _69
REMARK   26  A    between atoms: _68  and  _71
REMARK   27  A    between atoms: _71  and  _72
REMARK   28  A    between atoms: _75  and  _77
REMARK   29  A    between atoms: _77  and  _78
REMARK   30  A    between atoms: _80  and  _82
REMARK   31  A    between atoms: _82  and  _83
REMARK   32  A    between atoms: _82  and  _85
REMARK   33  A    between atoms: _85  and  _86
REMARK   34  A    between atoms: _86  and  _87
REMARK   35  A    between atoms: _87  and  _88
REMARK   36  A    between atoms: _97  and  _99
REMARK   37  A    between atoms: _99  and  _100
REMARK   38  A    between atoms: _99  and  _102
REMARK   39  A    between atoms: _102  and  _103
REMARK   40  A    between atoms: _103  and  _104
REMARK   41  A    between atoms: _104  and  _105
REMARK   42  A    between atoms: _114  and  _116
REMARK   43  A    between atoms: _116  and  _117
REMARK   44  A    between atoms: _116  and  _119
REMARK   45  A    between atoms: _119  and  _120
REMARK   46  A    between atoms: _120  and  _121
REMARK   47  A    between atoms: _124  and  _126
REMARK   48  A    between atoms: _126  and  _127
REMARK   49  A    between atoms: _126  and  _129
REMARK   50  A    between atoms: _132  and  _134
REMARK   51  A    between atoms: _134  and  _135
REMARK   52  A    between atoms: _134  and  _137
REMARK   53  A    between atoms: _137  and  _138
REMARK   54  A    between atoms: _143  and  _144
REMARK   55  A    between atoms: _146  and  _148
REMARK   56  A    between atoms: _148  and  _149
REMARK   57  A    between atoms: _151  and  _153
REMARK   58  A    between atoms: _153  and  _154
REMARK   59  A    between atoms: _153  and  _156
REMARK   60  A    between atoms: _156  and  _157
REMARK   61  A    between atoms: _160  and  _162
REMARK   62  A    between atoms: _162  and  _163
REMARK   63  A    between atoms: _162  and  _165
REMARK   64  A    between atoms: _165  and  _166
REMARK   65  A    between atoms: _171  and  _173
REMARK   66  A    between atoms: _173  and  _174
REMARK   67  A    between atoms: _173  and  _176
REMARK   68  A    between atoms: _176  and  _177
REMARK   69  A    between atoms: _180  and  _182
REMARK   70  A    between atoms: _182  and  _183
REMARK   71  A    between atoms: _182  and  _185
REMARK   72  A    between atoms: _185  and  _186
REMARK   73  A    between atoms: _186  and  _187
REMARK   74  A    between atoms: _192  and  _194
REMARK   75  A    between atoms: _194  and  _195
REMARK   76  A    between atoms: _194  and  _197
REMARK   77  A    between atoms: _197  and  _198
REMARK   78  A    between atoms: _201  and  _203
REMARK   79  A    between atoms: _203  and  _204
REMARK   80  A    between atoms: _203  and  _206
REMARK   81  A    between atoms: _206  and  _207
REMARK   82  A    between atoms: _210  and  _212
REMARK   83  A    between atoms: _212  and  _213
REMARK   84  A    between atoms: _212  and  _215
REMARK   85  A    between atoms: _215  and  _216
REMARK   86  A    between atoms: _221  and  _223
REMARK   87  A    between atoms: _223  and  _224
REMARK   88  A    between atoms: _227  and  _229
REMARK   89  A    between atoms: _229  and  _230
REMARK   90  A    between atoms: _232  and  _234
REMARK   91  A    between atoms: _234  and  _235
REMARK   92  A    between atoms: _237  and  _239
REMARK   93  A    between atoms: _239  and  _240
REMARK   94  A    between atoms: _239  and  _242
REMARK   95  A    between atoms: _242  and  _243
REMARK   96  A    between atoms: _246  and  _248
REMARK   97  A    between atoms: _248  and  _249
REMARK   98  A    between atoms: _248  and  _251
REMARK   99  A    between atoms: _251  and  _252
REMARK  100  A    between atoms: _255  and  _257
REMARK  101  A    between atoms: _257  and  _258
REMARK  102  A    between atoms: _257  and  _260
REMARK  103  A    between atoms: _260  and  _261
REMARK  104  A    between atoms: _266  and  _268
REMARK  105  A    between atoms: _268  and  _269
REMARK  106  A    between atoms: _268  and  _271
REMARK  107  A    between atoms: _271  and  _272
REMARK  108  A    between atoms: _272  and  _273
REMARK  109  A    between atoms: _276  and  _278
REMARK  110  A    between atoms: _278  and  _279
REMARK  111  A    between atoms: _278  and  _281
REMARK  112  A    between atoms: _284  and  _286
REMARK  113  A    between atoms: _286  and  _287
REMARK  114  A    between atoms: _286  and  _289
REMARK  115  A    between atoms: _289  and  _290
REMARK  116  A    between atoms: _295  and  _297
REMARK  117  A    between atoms: _297  and  _298
REMARK  118  A    between atoms: _297  and  _300
REMARK  119  A    between atoms: _300  and  _301
REMARK  120  A    between atoms: _304  and  _306
REMARK  121  A    between atoms: _306  and  _307
REMARK  122  A    between atoms: _306  and  _309
REMARK  123  A    between atoms: _309  and  _310
REMARK  124  A    between atoms: _312  and  _314
REMARK  125  A    between atoms: _314  and  _315
REMARK  126  A    between atoms: _314  and  _317
REMARK  127  A    between atoms: _317  and  _318
REMARK  128  A    between atoms: _323  and  _325
REMARK  129  A    between atoms: _325  and  _326
REMARK  130  A    between atoms: _325  and  _328
REMARK  131  A    between atoms: _331  and  _333
REMARK  132  A    between atoms: _333  and  _334
REMARK  133  A    between atoms: _333  and  _336
REMARK  134  A    between atoms: _336  and  _337
REMARK  135  A    between atoms: _342  and  _344
REMARK  136  A    between atoms: _344  and  _345
REMARK  137  A    between atoms: _344  and  _347
REMARK  138  A    between atoms: _347  and  _348
REMARK  139  A    between atoms: _348  and  _349
REMARK  140  A    between atoms: _349  and  _350
REMARK  141  A    between atoms: _359  and  _361
REMARK  142  A    between atoms: _361  and  _362
REMARK  143  A    between atoms: _361  and  _364
REMARK  144  A    between atoms: _364  and  _365
REMARK  145  A    between atoms: _365  and  _366
REMARK  146  A    between atoms: _369  and  _371
REMARK  147  A    between atoms: _371  and  _372
REMARK  148  A    between atoms: _371  and  _374
REMARK  149  A    between atoms: _374  and  _375
REMARK  150  A    between atoms: _381  and  _383
REMARK  151  A    between atoms: _383  and  _384
REMARK  152  A    between atoms: _383  and  _386
REMARK  153  A    between atoms: _386  and  _387
REMARK  154  A    between atoms: _387  and  _388
REMARK  155  A    between atoms: _388  and  _389
REMARK  156  A    between atoms: _398  and  _400
REMARK  157  A    between atoms: _400  and  _401
REMARK  158  A    between atoms: _400  and  _403
REMARK  159  A    between atoms: _403  and  _404
REMARK  160  A    between atoms: _404  and  _405
REMARK  161  A    between atoms: _405  and  _406
REMARK  162  A    between atoms: _415  and  _417
REMARK  163  A    between atoms: _417  and  _418
REMARK  164  A    between atoms: _417  and  _420
REMARK  165  A    between atoms: _420  and  _421
REMARK  166  A    between atoms: _426  and  _428
REMARK  167  A    between atoms: _428  and  _429
REMARK  168  A    between atoms: _428  and  _431
REMARK  169  A    between atoms: _431  and  _432
REMARK  170  A    between atoms: _435  and  _437
REMARK  171  A    between atoms: _437  and  _438
REMARK  172  A    between atoms: _437  and  _440
REMARK  173  A    between atoms: _443  and  _445
REMARK  174  A    between atoms: _445  and  _446
REMARK  175  A    between atoms: _448  and  _450
REMARK  176  A    between atoms: _450  and  _451
REMARK  177  A    between atoms: _450  and  _453
REMARK  178  A    between atoms: _453  and  _454
REMARK  179  A    between atoms: _457  and  _459
REMARK  180  A    between atoms: _459  and  _460
REMARK  181  A    between atoms: _462  and  _464
REMARK  182  A    between atoms: _464  and  _465
REMARK  183  A    between atoms: _464  and  _467
REMARK  184  A    between atoms: _467  and  _468
REMARK  185  A    between atoms: _471  and  _473
REMARK  186  A    between atoms: _473  and  _474
REMARK  187  A    between atoms: _473  and  _476
REMARK  188  A    between atoms: _476  and  _477
REMARK  189  A    between atoms: _482  and  _483
REMARK  190  A    between atoms: _485  and  _487
REMARK  191  A    between atoms: _487  and  _488
REMARK  192  A    between atoms: _487  and  _490
REMARK  193  A    between atoms: _490  and  _491
REMARK  194  A    between atoms: _496  and  _498
REMARK  195  A    between atoms: _498  and  _499
REMARK  196  A    between atoms: _498  and  _501
REMARK  197  A    between atoms: _504  and  _506
REMARK  198  A    between atoms: _506  and  _507
REMARK  199  A    between atoms: _510  and  _512
REMARK  200  A    between atoms: _512  and  _513
REMARK  201  A    between atoms: _512  and  _515
REMARK  202  A    between atoms: _515  and  _516
REMARK  203  A    between atoms: _519  and  _521
REMARK  204  A    between atoms: _521  and  _522
REMARK  205  A    between atoms: _521  and  _524
REMARK  206  A    between atoms: _524  and  _525
REMARK  207  A    between atoms: _525  and  _526
REMARK  208  A    between atoms: _526  and  _527
REMARK  209  A    between atoms: _536  and  _538
REMARK  210  A    between atoms: _538  and  _539
REMARK  211  A    between atoms: _538  and  _541
REMARK  212  A    between atoms: _541  and  _542
REMARK  213  A    between atoms: _545  and  _547
REMARK  214  A    between atoms: _547  and  _548
REMARK  215  A    between atoms: _551  and  _553
REMARK  216  A    between atoms: _553  and  _554
REMARK  217  A    between atoms: _553  and  _556
REMARK  218  A    between atoms: _558  and  _560
REMARK  219  A    between atoms: _560  and  _561
REMARK  220  A    between atoms: _564  and  _566
REMARK  221  A    between atoms: _566  and  _567
REMARK  222  A    between atoms: _566  and  _569
REMARK  223  A    between atoms: _569  and  _570
REMARK  224  A    between atoms: _570  and  _571
REMARK                            x       y       z     vdW  Elec       q    Type
REMARK                         _______ _______ _______ _____ _____    ______ ____
ROOT
ATOM      1  C   GLY A   3      36.117  38.127   1.958  0.00  0.00    +0.243 C 
ATOM      2  O   GLY A   3      37.281  38.449   1.719  0.00  0.00    -0.273 OA
ATOM      3  N   LEU A   4      35.240  37.791   1.014  0.00  0.00    -0.297 N 
ATOM      4  H   LEU A   4      34.266  37.560   1.297  0.00  0.00    +0.150 HD
ENDROOT
BRANCH   3   5
ATOM      5  CA  LEU A   4      35.591  37.733  -0.408  0.00  0.00    +0.149 C 
BRANCH   5   6
ATOM      6  C   LEU A   4      35.162  38.981  -1.142  0.00  0.00    +0.241 C 
ATOM      7  N   GLY A   5      34.888  40.034  -0.376  0.00  0.00    -0.295 N 
ATOM      8  H   GLY A   5      34.885  39.923   0.658  0.00  0.00    +0.150 HD
ATOM      9  O   LEU A   4      35.107  39.006  -2.384  0.00  0.00    -0.273 OA
BRANCH   7  10
ATOM     10  CA  GLY A   5      34.595  41.325  -0.945  0.00  0.00    +0.176 C 
BRANCH  10  11
ATOM     11  C   GLY A   5      33.247  41.270  -1.642  0.00  0.00    +0.243 C 
ATOM     12  O   GLY A   5      32.407  40.409  -1.362  0.00  0.00    -0.273 OA
ATOM     13  N   ILE A   6      33.061  42.189  -2.569  0.00  0.00    -0.298 N 
ATOM     14  H   ILE A   6      33.810  42.890  -2.739  0.00  0.00    +0.150 HD
BRANCH  13  15
ATOM     15  CA  ILE A   6      31.837  42.254  -3.365  0.00  0.00    +0.137 C 
BRANCH  15  16
ATOM     16  C   ILE A   6      31.608  41.007  -4.243  0.00  0.00    +0.227 C 
ATOM     17  O   ILE A   6      30.468  40.603  -4.494  0.00  0.00    -0.286 OA
ENDBRANCH  15  16
BRANCH  15  18
ATOM     18  CB  ILE A   6      31.850  43.569  -4.151  0.00  0.00    +0.026 C 
ATOM     19  CG2 ILE A   6      31.154  43.472  -5.485  0.00  0.00    +0.002 C 
BRANCH  18  20
ATOM     20  CG1 ILE A   6      31.215  44.633  -3.253  0.00  0.00    +0.002 C 
ATOM     21  CD1 ILE A   6      31.691  45.992  -3.619  0.00  0.00    +0.000 C 
ENDBRANCH  18  20
ENDBRANCH  15  18
ENDBRANCH  13  15
ENDBRANCH  10  11
ENDBRANCH   7  10
ENDBRANCH   5   6
BRANCH   5  22
ATOM     22  CB  LEU A   4      34.988  36.484  -1.058  0.00  0.00    +0.029 C 
BRANCH  22  23
ATOM     23  CG  LEU A   4      35.521  35.152  -0.464  0.00  0.00    +0.002 C 
ATOM     24  CD2 LEU A   4      37.086  35.110  -0.368  0.00  0.00    +0.000 C 
ATOM     25  CD1 LEU A   4      34.977  33.942  -1.252  0.00  0.00    +0.000 C 
ENDBRANCH  22  23
ENDBRANCH   5  22
ENDBRANCH   3   5
BRANCH   1  26
ATOM     26  CA  GLY A   3      35.625  38.105   3.401  0.00  0.00    +0.176 C 
BRANCH  26  28
ATOM     27  C   VAL A   2      33.966  36.339   3.658  0.00  0.00    +0.241 C 
ATOM     28  N   GLY A   3      34.265  37.626   3.606  0.00  0.00    -0.295 N 
ATOM     29  H   GLY A   3      33.500  38.322   3.716  0.00  0.00    +0.150 HD
ATOM     30  O   VAL A   2      34.740  35.433   3.325  0.00  0.00    -0.273 OA
BRANCH  27  31
ATOM     31  CA  VAL A   2      32.549  36.030   4.133  0.00  0.00    +0.148 C 
BRANCH  31  33
ATOM     32  C   ILE A   1      30.783  34.791   2.928  0.00  0.00    +0.238 C 
ATOM     33  N   VAL A   2      32.002  34.806   3.492  0.00  0.00    -0.297 N 
ATOM     34  H   VAL A   2      32.577  33.940   3.480  0.00  0.00    +0.150 HD
ATOM     35  O   ILE A   1      29.964  35.684   3.078  0.00  0.00    -0.274 OA
BRANCH  32  36
ATOM     36  CA  ILE A   1      30.367  33.556   2.177  0.00  0.00    +0.145 C 
BRANCH  36  37
ATOM     37  N   ILE A   1      29.139  33.122   2.831  0.00  0.00    -0.238 NA
ATOM     38  H   ILE A   1      28.338  33.783   2.888  0.00  0.00    +0.142 HD
ENDBRANCH  36  37
BRANCH  36  39
ATOM     39  CB  ILE A   1      30.160  33.866   0.680  0.00  0.00    +0.025 C 
ATOM     40  CG2 ILE A   1      31.482  34.215   0.002  0.00  0.00    +0.002 C 
BRANCH  39  41
ATOM     41  CG1 ILE A   1      29.567  32.665  -0.058  0.00  0.00    +0.002 C 
ATOM     42  CD1 ILE A   1      29.163  32.947  -1.532  0.00  0.00    +0.000 C 
ENDBRANCH  39  41
ENDBRANCH  36  39
ENDBRANCH  32  36
ENDBRANCH  31  33
BRANCH  31  43
ATOM     43  CB  VAL A   2      32.511  36.010   5.705  0.00  0.00    +0.027 C 
ATOM     44  CG2 VAL A   2      33.735  35.304   6.323  0.00  0.00    +0.002 C 
ATOM     45  CG1 VAL A   2      31.199  35.402   6.180  0.00  0.00    +0.002 C 
ENDBRANCH  31  43
ENDBRANCH  27  31
ENDBRANCH  26  28
ENDBRANCH   1  26
TORSDOF 19
REMARK  Name = ../refined-set-2016/4b6p/4b6p_pocket.pdb
REMARK  224 active torsions:
REMARK  status: ('A' for Active; 'I' for Inactive)
REMARK    1  A    between atoms: _1  and  _3
REMARK    2  A    between atoms: _3  and  _4
REMARK    3  A    between atoms: _3  and  _6
REMARK    4  A    between atoms: _6  and  _7
REMARK    5  A    between atoms: _12  and  _14
REMARK    6  A    between atoms: _14  and  _15
REMARK    7  A    between atoms: _18  and  _19
REMARK    8  A    between atoms: _24  and  _26
REMARK    9  A    between atoms: _26  and  _27
REMARK   10  A    between atoms: _26  and  _29
REMARK   11  A    between atoms: _29  and  _30
REMARK   12  A    between atoms: _35  and  _37
REMARK   13  A    between atoms: _37  and  _38
REMARK   14  A    between atoms: _37  and  _40
REMARK   15  A    between atoms: _40  and  _41
REMARK   16  A    between atoms: _44  and  _46
REMARK   17  A    between atoms: _46  and  _47
REMARK   18  A    between atoms: _49  and  _51
REMARK   19  A    between atoms: _51  and  _52
REMARK   20  A    between atoms: _51  and  _54
REMARK   21  A    between atoms: _54  and  _55
REMARK   22  A    between atoms: _55  and  _56
REMARK   23  A    between atoms: _56  and  _57
REMARK   24  A    between atoms: _66  and  _68
REMARK   25  A    between atoms: _68  and  _69
REMARK   26  A    between atoms: _68  and  _71
REMARK   27  A    between atoms: _71  and  _72
REMARK   28  A    between atoms: _75  and  _77
REMARK   29  A    between atoms: _77  and  _78
REMARK   30  A    between atoms: _80  and  _82
REMARK   31  A    between atoms: _82  and  _83
REMARK   32  A    between atoms: _82  and  _85
REMARK   33  A    between atoms: _85  and  _86
REMARK   34  A    between atoms: _86  and  _87
REMARK   35  A    between atoms: _87  and  _88
REMARK   36  A    between atoms: _97  and  _99
REMARK   37  A    between atoms: _99  and  _100
REMARK   38  A    between atoms: _99  and  _102
REMARK   39  A    between atoms: _102  and  _103
REMARK   40  A    between atoms: _103  and  _104
REMARK   41  A    between atoms: _104  and  _105
REMARK   42  A    between atoms: _114  and  _116
REMARK   43  A    between atoms: _116  and  _117
REMARK   44  A    between atoms: _116  and  _119
REMARK   45  A    between atoms: _119  and  _120
REMARK   46  A    between atoms: _120  and  _121
REMARK   47  A    between atoms: _124  and  _126
REMARK   48  A    between atoms: _126  and  _127
REMARK   49  A    between atoms: _126  and  _129
REMARK   50  A    between atoms: _132  and  _134
REMARK   51  A    between atoms: _134  and  _135
REMARK   52  A    between atoms: _134  and  _137
REMARK   53  A    between atoms: _137  and  _138
REMARK   54  A    between atoms: _143  and  _144
REMARK   55  A    between atoms: _146  and  _148
REMARK   56  A    between atoms: _148  and  _149
REMARK   57  A    between atoms: _151  and  _153
REMARK   58  A    between atoms: _153  and  _154
REMARK   59  A    between atoms: _153  and  _156
REMARK   60  A    between atoms: _156  and  _157
REMARK   61  A    between atoms: _160  and  _162
REMARK   62  A    between atoms: _162  and  _163
REMARK   63  A    between atoms: _162  and  _165
REMARK   64  A    between atoms: _165  and  _166
REMARK   65  A    between atoms: _171  and  _173
REMARK   66  A    between atoms: _173  and  _174
REMARK   67  A    between atoms: _173  and  _176
REMARK   68  A    between atoms: _176  and  _177
REMARK   69  A    between atoms: _180  and  _182
REMARK   70  A    between atoms: _182  and  _183
REMARK   71  A    between atoms: _182  and  _185
REMARK   72  A    between atoms: _185  and  _186
REMARK   73  A    between atoms: _186  and  _187
REMARK   74  A    between atoms: _192  and  _194
REMARK   75  A    between atoms: _194  and  _195
REMARK   76  A    between atoms: _194  and  _197
REMARK   77  A    between atoms: _197  and  _198
REMARK   78  A    between atoms: _201  and  _203
REMARK   79  A    between atoms: _203  and  _204
REMARK   80  A    between atoms: _203  and  _206
REMARK   81  A    between atoms: _206  and  _207
REMARK   82  A    between atoms: _210  and  _212
REMARK   83  A    between atoms: _212  and  _213
REMARK   84  A    between atoms: _212  and  _215
REMARK   85  A    between atoms: _215  and  _216
REMARK   86  A    between atoms: _221  and  _223
REMARK   87  A    between atoms: _223  and  _224
REMARK   88  A    between atoms: _227  and  _229
REMARK   89  A    between atoms: _229  and  _230
REMARK   90  A    between atoms: _232  and  _234
REMARK   91  A    between atoms: _234  and  _235
REMARK   92  A    between atoms: _237  and  _239
REMARK   93  A    between atoms: _239  and  _240
REMARK   94  A    between atoms: _239  and  _242
REMARK   95  A    between atoms: _242  and  _243
REMARK   96  A    between atoms: _246  and  _248
REMARK   97  A    between atoms: _248  and  _249
REMARK   98  A    between atoms: _248  and  _251
REMARK   99  A    between atoms: _251  and  _252
REMARK  100  A    between atoms: _255  and  _257
REMARK  101  A    between atoms: _257  and  _258
REMARK  102  A    between atoms: _257  and  _260
REMARK  103  A    between atoms: _260  and  _261
REMARK  104  A    between atoms: _266  and  _268
REMARK  105  A    between atoms: _268  and  _269
REMARK  106  A    between atoms: _268  and  _271
REMARK  107  A    between atoms: _271  and  _272
REMARK  108  A    between atoms: _272  and  _273
REMARK  109  A    between atoms: _276  and  _278
REMARK  110  A    between atoms: _278  and  _279
REMARK  111  A    between atoms: _278  and  _281
REMARK  112  A    between atoms: _284  and  _286
REMARK  113  A    between atoms: _286  and  _287
REMARK  114  A    between atoms: _286  and  _289
REMARK  115  A    between atoms: _289  and  _290
REMARK  116  A    between atoms: _295  and  _297
REMARK  117  A    between atoms: _297  and  _298
REMARK  118  A    between atoms: _297  and  _300
REMARK  119  A    between atoms: _300  and  _301
REMARK  120  A    between atoms: _304  and  _306
REMARK  121  A    between atoms: _306  and  _307
REMARK  122  A    between atoms: _306  and  _309
REMARK  123  A    between atoms: _309  and  _310
REMARK  124  A    between atoms: _312  and  _314
REMARK  125  A    between atoms: _314  and  _315
REMARK  126  A    between atoms: _314  and  _317
REMARK  127  A    between atoms: _317  and  _318
REMARK  128  A    between atoms: _323  and  _325
REMARK  129  A    between atoms: _325  and  _326
REMARK  130  A    between atoms: _325  and  _328
REMARK  131  A    between atoms: _331  and  _333
REMARK  132  A    between atoms: _333  and  _334
REMARK  133  A    between atoms: _333  and  _336
REMARK  134  A    between atoms: _336  and  _337
REMARK  135  A    between atoms: _342  and  _344
REMARK  136  A    between atoms: _344  and  _345
REMARK  137  A    between atoms: _344  and  _347
REMARK  138  A    between atoms: _347  and  _348
REMARK  139  A    between atoms: _348  and  _349
REMARK  140  A    between atoms: _349  and  _350
REMARK  141  A    between atoms: _359  and  _361
REMARK  142  A    between atoms: _361  and  _362
REMARK  143  A    between atoms: _361  and  _364
REMARK  144  A    between atoms: _364  and  _365
REMARK  145  A    between atoms: _365  and  _366
REMARK  146  A    between atoms: _369  and  _371
REMARK  147  A    between atoms: _371  and  _372
REMARK  148  A    between atoms: _371  and  _374
REMARK  149  A    between atoms: _374  and  _375
REMARK  150  A    between atoms: _381  and  _383
REMARK  151  A    between atoms: _383  and  _384
REMARK  152  A    between atoms: _383  and  _386
REMARK  153  A    between atoms: _386  and  _387
REMARK  154  A    between atoms: _387  and  _388
REMARK  155  A    between atoms: _388  and  _389
REMARK  156  A    between atoms: _398  and  _400
REMARK  157  A    between atoms: _400  and  _401
REMARK  158  A    between atoms: _400  and  _403
REMARK  159  A    between atoms: _403  and  _404
REMARK  160  A    between atoms: _404  and  _405
REMARK  161  A    between atoms: _405  and  _406
REMARK  162  A    between atoms: _415  and  _417
REMARK  163  A    between atoms: _417  and  _418
REMARK  164  A    between atoms: _417  and  _420
REMARK  165  A    between atoms: _420  and  _421
REMARK  166  A    between atoms: _426  and  _428
REMARK  167  A    between atoms: _428  and  _429
REMARK  168  A    between atoms: _428  and  _431
REMARK  169  A    between atoms: _431  and  _432
REMARK  170  A    between atoms: _435  and  _437
REMARK  171  A    between atoms: _437  and  _438
REMARK  172  A    between atoms: _437  and  _440
REMARK  173  A    between atoms: _443  and  _445
REMARK  174  A    between atoms: _445  and  _446
REMARK  175  A    between atoms: _448  and  _450
REMARK  176  A    between atoms: _450  and  _451
REMARK  177  A    between atoms: _450  and  _453
REMARK  178  A    between atoms: _453  and  _454
REMARK  179  A    between atoms: _457  and  _459
REMARK  180  A    between atoms: _459  and  _460
REMARK  181  A    between atoms: _462  and  _464
REMARK  182  A    between atoms: _464  and  _465
REMARK  183  A    between atoms: _464  and  _467
REMARK  184  A    between atoms: _467  and  _468
REMARK  185  A    between atoms: _471  and  _473
REMARK  186  A    between atoms: _473  and  _474
REMARK  187  A    between atoms: _473  and  _476
REMARK  188  A    between atoms: _476  and  _477
REMARK  189  A    between atoms: _482  and  _483
REMARK  190  A    between atoms: _485  and  _487
REMARK  191  A    between atoms: _487  and  _488
REMARK  192  A    between atoms: _487  and  _490
REMARK  193  A    between atoms: _490  and  _491
REMARK  194  A    between atoms: _496  and  _498
REMARK  195  A    between atoms: _498  and  _499
REMARK  196  A    between atoms: _498  and  _501
REMARK  197  A    between atoms: _504  and  _506
REMARK  198  A    between atoms: _506  and  _507
REMARK  199  A    between atoms: _510  and  _512
REMARK  200  A    between atoms: _512  and  _513
REMARK  201  A    between atoms: _512  and  _515
REMARK  202  A    between atoms: _515  and  _516
REMARK  203  A    between atoms: _519  and  _521
REMARK  204  A    between atoms: _521  and  _522
REMARK  205  A    between atoms: _521  and  _524
REMARK  206  A    between atoms: _524  and  _525
REMARK  207  A    between atoms: _525  and  _526
REMARK  208  A    between atoms: _526  and  _527
REMARK  209  A    between atoms: _536  and  _538
REMARK  210  A    between atoms: _538  and  _539
REMARK  211  A    between atoms: _538  and  _541
REMARK  212  A    between atoms: _541  and  _542
REMARK  213  A    between atoms: _545  and  _547
REMARK  214  A    between atoms: _547  and  _548
REMARK  215  A    between atoms: _551  and  _553
REMARK  216  A    between atoms: _553  and  _554
REMARK  217  A    between atoms: _553  and  _556
REMARK  218  A    between atoms: _558  and  _560
REMARK  219  A    between atoms: _560  and  _561
REMARK  220  A    between atoms: _564  and  _566
REMARK  221  A    between atoms: _566  and  _567
REMARK  222  A    between atoms: _566  and  _569
REMARK  223  A    between atoms: _569  and  _570
REMARK  224  A    between atoms: _570  and  _571
REMARK                            x       y       z     vdW  Elec       q    Type
REMARK                         _______ _______ _______ _____ _____    ______ ____
ROOT
ATOM      1  CG  TYR A   1      26.839  40.539  -2.954  0.00  0.00    -0.020 A 
ATOM      2  CD2 TYR A   1      25.596  40.525  -2.319  0.00  0.00    -0.001 A 
ATOM      3  CE2 TYR A   1      25.360  41.279  -1.194  0.00  0.00    +0.036 A 
ATOM      4  CZ  TYR A   1      26.361  42.083  -0.692  0.00  0.00    +0.134 A 
ATOM      5  CE1 TYR A   1      27.599  42.116  -1.299  0.00  0.00    +0.036 A 
ATOM      6  CD1 TYR A   1      27.834  41.353  -2.431  0.00  0.00    -0.001 A 
ENDROOT
BRANCH   4   7
ATOM      7  OH  TYR A   1      26.150  42.868   0.430  0.00  0.00    -0.506 OA
ATOM      8  HH  TYR A   1      25.222  42.740   0.751  0.00  0.00    +0.292 HD
ENDBRANCH   4   7
BRANCH   1   9
ATOM      9  CB  TYR A   1      27.084  39.734  -4.206  0.00  0.00    +0.051 C 
BRANCH   9  10
ATOM     10  CA  TYR A   1      27.494  38.300  -3.985  0.00  0.00    +0.137 C 
BRANCH  10  11
ATOM     11  N   TYR A   1      28.851  38.224  -3.439  0.00  0.00    -0.239 NA
ATOM     12  H   TYR A   1      29.405  39.097  -3.328  0.00  0.00    +0.142 HD
ENDBRANCH  10  11
BRANCH  10  13
ATOM     13  C   TYR A   1      27.379  37.585  -5.321  0.00  0.00    +0.224 C 
ATOM     14  O   TYR A   1      26.417  36.878  -5.583  0.00  0.00    -0.287 OA
ENDBRANCH  10  13
ENDBRANCH   9  10
ENDBRANCH   1   9
TORSDOF 5
REMARK  Name = ../refined-set-2016/4b6p/4b6p_pocket.pdb
REMARK  224 active torsions:
REMARK  status: ('A' for Active; 'I' for Inactive)
REMARK    1  A    between atoms: _1  and  _3
REMARK    2  A    between atoms: _3  and  _4
REMARK    3  A    between atoms: _3  and  _6
REMARK    4  A    between atoms: _6  and  _7
REMARK    5  A    between atoms: _12  and  _14
REMARK    6  A    between atoms: _14  and  _15
REMARK    7  A    between atoms: _18  and  _19
REMARK    8  A    between atoms: _24  and  _26
REMARK    9  A    between atoms: _26  and  _27
REMARK   10  A    between atoms: _26  and  _29
REMARK   11  A    between atoms: _29  and  _30
REMARK   12  A    between atoms: _35  and  _37
REMARK   13  A    between atoms: _37  and  _38
REMARK   14  A    between atoms: _37  and  _40
REMARK   15  A    between atoms: _40  and  _41
REMARK   16  A    between atoms: _44  and  _46
REMARK   17  A    between atoms: _46  and  _47
REMARK   18  A    between atoms: _49  and  _51
REMARK   19  A    between atoms: _51  and  _52
REMARK   20  A    between atoms: _51  and  _54
REMARK   21  A    between atoms: _54  and  _55
REMARK   22  A    between atoms: _55  and  _56
REMARK   23  A    between atoms: _56  and  _57
REMARK   24  A    between atoms: _66  and  _68
REMARK   25  A    between atoms: _68  and  _69
REMARK   26  A    between atoms: _68  and  _71
REMARK   27  A    between atoms: _71  and  _72
REMARK   28  A    between atoms: _75  and  _77
REMARK   29  A    between atoms: _77  and  _78
REMARK   30  A    between atoms: _80  and  _82
REMARK   31  A    between atoms: _82  and  _83
REMARK   32  A    between atoms: _82  and  _85
REMARK   33  A    between atoms: _85  and  _86
REMARK   34  A    between atoms: _86  and  _87
REMARK   35  A    between atoms: _87  and  _88
REMARK   36  A    between atoms: _97  and  _99
REMARK   37  A    between atoms: _99  and  _100
REMARK   38  A    between atoms: _99  and  _102
REMARK   39  A    between atoms: _102  and  _103
REMARK   40  A    between atoms: _103  and  _104
REMARK   41  A    between atoms: _104  and  _105
REMARK   42  A    between atoms: _114  and  _116
REMARK   43  A    between atoms: _116  and  _117
REMARK   44  A    between atoms: _116  and  _119
REMARK   45  A    between atoms: _119  and  _120
REMARK   46  A    between atoms: _120  and  _121
REMARK   47  A    between atoms: _124  and  _126
REMARK   48  A    between atoms: _126  and  _127
REMARK   49  A    between atoms: _126  and  _129
REMARK   50  A    between atoms: _132  and  _134
REMARK   51  A    between atoms: _134  and  _135
REMARK   52  A    between atoms: _134  and  _137
REMARK   53  A    between atoms: _137  and  _138
REMARK   54  A    between atoms: _143  and  _144
REMARK   55  A    between atoms: _146  and  _148
REMARK   56  A    between atoms: _148  and  _149
REMARK   57  A    between atoms: _151  and  _153
REMARK   58  A    between atoms: _153  and  _154
REMARK   59  A    between atoms: _153  and  _156
REMARK   60  A    between atoms: _156  and  _157
REMARK   61  A    between atoms: _160  and  _162
REMARK   62  A    between atoms: _162  and  _163
REMARK   63  A    between atoms: _162  and  _165
REMARK   64  A    between atoms: _165  and  _166
REMARK   65  A    between atoms: _171  and  _173
REMARK   66  A    between atoms: _173  and  _174
REMARK   67  A    between atoms: _173  and  _176
REMARK   68  A    between atoms: _176  and  _177
REMARK   69  A    between atoms: _180  and  _182
REMARK   70  A    between atoms: _182  and  _183
REMARK   71  A    between atoms: _182  and  _185
REMARK   72  A    between atoms: _185  and  _186
REMARK   73  A    between atoms: _186  and  _187
REMARK   74  A    between atoms: _192  and  _194
REMARK   75  A    between atoms: _194  and  _195
REMARK   76  A    between atoms: _194  and  _197
REMARK   77  A    between atoms: _197  and  _198
REMARK   78  A    between atoms: _201  and  _203
REMARK   79  A    between atoms: _203  and  _204
REMARK   80  A    between atoms: _203  and  _206
REMARK   81  A    between atoms: _206  and  _207
REMARK   82  A    between atoms: _210  and  _212
REMARK   83  A    between atoms: _212  and  _213
REMARK   84  A    between atoms: _212  and  _215
REMARK   85  A    between atoms: _215  and  _216
REMARK   86  A    between atoms: _221  and  _223
REMARK   87  A    between atoms: _223  and  _224
REMARK   88  A    between atoms: _227  and  _229
REMARK   89  A    between atoms: _229  and  _230
REMARK   90  A    between atoms: _232  and  _234
REMARK   91  A    between atoms: _234  and  _235
REMARK   92  A    between atoms: _237  and  _239
REMARK   93  A    between atoms: _239  and  _240
REMARK   94  A    between atoms: _239  and  _242
REMARK   95  A    between atoms: _242  and  _243
REMARK   96  A    between atoms: _246  and  _248
REMARK   97  A    between atoms: _248  and  _249
REMARK   98  A    between atoms: _248  and  _251
REMARK   99  A    between atoms: _251  and  _252
REMARK  100  A    between atoms: _255  and  _257
REMARK  101  A    between atoms: _257  and  _258
REMARK  102  A    between atoms: _257  and  _260
REMARK  103  A    between atoms: _260  and  _261
REMARK  104  A    between atoms: _266  and  _268
REMARK  105  A    between atoms: _268  and  _269
REMARK  106  A    between atoms: _268  and  _271
REMARK  107  A    between atoms: _271  and  _272
REMARK  108  A    between atoms: _272  and  _273
REMARK  109  A    between atoms: _276  and  _278
REMARK  110  A    between atoms: _278  and  _279
REMARK  111  A    between atoms: _278  and  _281
REMARK  112  A    between atoms: _284  and  _286
REMARK  113  A    between atoms: _286  and  _287
REMARK  114  A    between atoms: _286  and  _289
REMARK  115  A    between atoms: _289  and  _290
REMARK  116  A    between atoms: _295  and  _297
REMARK  117  A    between atoms: _297  and  _298
REMARK  118  A    between atoms: _297  and  _300
REMARK  119  A    between atoms: _300  and  _301
REMARK  120  A    between atoms: _304  and  _306
REMARK  121  A    between atoms: _306  and  _307
REMARK  122  A    between atoms: _306  and  _309
REMARK  123  A    between atoms: _309  and  _310
REMARK  124  A    between atoms: _312  and  _314
REMARK  125  A    between atoms: _314  and  _315
REMARK  126  A    between atoms: _314  and  _317
REMARK  127  A    between atoms: _317  and  _318
REMARK  128  A    between atoms: _323  and  _325
REMARK  129  A    between atoms: _325  and  _326
REMARK  130  A    between atoms: _325  and  _328
REMARK  131  A    between atoms: _331  and  _333
REMARK  132  A    between atoms: _333  and  _334
REMARK  133  A    between atoms: _333  and  _336
REMARK  134  A    between atoms: _336  and  _337
REMARK  135  A    between atoms: _342  and  _344
REMARK  136  A    between atoms: _344  and  _345
REMARK  137  A    between atoms: _344  and  _347
REMARK  138  A    between atoms: _347  and  _348
REMARK  139  A    between atoms: _348  and  _349
REMARK  140  A    between atoms: _349  and  _350
REMARK  141  A    between atoms: _359  and  _361
REMARK  142  A    between atoms: _361  and  _362
REMARK  143  A    between atoms: _361  and  _364
REMARK  144  A    between atoms: _364  and  _365
REMARK  145  A    between atoms: _365  and  _366
REMARK  146  A    between atoms: _369  and  _371
REMARK  147  A    between atoms: _371  and  _372
REMARK  148  A    between atoms: _371  and  _374
REMARK  149  A    between atoms: _374  and  _375
REMARK  150  A    between atoms: _381  and  _383
REMARK  151  A    between atoms: _383  and  _384
REMARK  152  A    between atoms: _383  and  _386
REMARK  153  A    between atoms: _386  and  _387
REMARK  154  A    between atoms: _387  and  _388
REMARK  155  A    between atoms: _388  and  _389
REMARK  156  A    between atoms: _398  and  _400
REMARK  157  A    between atoms: _400  and  _401
REMARK  158  A    between atoms: _400  and  _403
REMARK  159  A    between atoms: _403  and  _404
REMARK  160  A    between atoms: _404  and  _405
REMARK  161  A    between atoms: _405  and  _406
REMARK  162  A    between atoms: _415  and  _417
REMARK  163  A    between atoms: _417  and  _418
REMARK  164  A    between atoms: _417  and  _420
REMARK  165  A    between atoms: _420  and  _421
REMARK  166  A    between atoms: _426  and  _428
REMARK  167  A    between atoms: _428  and  _429
REMARK  168  A    between atoms: _428  and  _431
REMARK  169  A    between atoms: _431  and  _432
REMARK  170  A    between atoms: _435  and  _437
REMARK  171  A    between atoms: _437  and  _438
REMARK  172  A    between atoms: _437  and  _440
REMARK  173  A    between atoms: _443  and  _445
REMARK  174  A    between atoms: _445  and  _446
REMARK  175  A    between atoms: _448  and  _450
REMARK  176  A    between atoms: _450  and  _451
REMARK  177  A    between atoms: _450  and  _453
REMARK  178  A    between atoms: _453  and  _454
REMARK  179  A    between atoms: _457  and  _459
REMARK  180  A    between atoms: _459  and  _460
REMARK  181  A    between atoms: _462  and  _464
REMARK  182  A    between atoms: _464  and  _465
REMARK  183  A    between atoms: _464  and  _467
REMARK  184  A    between atoms: _467  and  _468
REMARK  185  A    between atoms: _471  and  _473
REMARK  186  A    between atoms: _473  and  _474
REMARK  187  A    between atoms: _473  and  _476
REMARK  188  A    between atoms: _476  and  _477
REMARK  189  A    between atoms: _482  and  _483
REMARK  190  A    between atoms: _485  and  _487
REMARK  191  A    between atoms: _487  and  _488
REMARK  192  A    between atoms: _487  and  _490
REMARK  193  A    between atoms: _490  and  _491
REMARK  194  A    between atoms: _496  and  _498
REMARK  195  A    between atoms: _498  and  _499
REMARK  196  A    between atoms: _498  and  _501
REMARK  197  A    between atoms: _504  and  _506
REMARK  198  A    between atoms: _506  and  _507
REMARK  199  A    between atoms: _510  and  _512
REMARK  200  A    between atoms: _512  and  _513
REMARK  201  A    between atoms: _512  and  _515
REMARK  202  A    between atoms: _515  and  _516
REMARK  203  A    between atoms: _519  and  _521
REMARK  204  A    between atoms: _521  and  _522
REMARK  205  A    between atoms: _521  and  _524
REMARK  206  A    between atoms: _524  and  _525
REMARK  207  A    between atoms: _525  and  _526
REMARK  208  A    between atoms: _526  and  _527
REMARK  209  A    between atoms: _536  and  _538
REMARK  210  A    between atoms: _538  and  _539
REMARK  211  A    between atoms: _538  and  _541
REMARK  212  A    between atoms: _541  and  _542
REMARK  213  A    between atoms: _545  and  _547
REMARK  214  A    between atoms: _547  and  _548
REMARK  215  A    between atoms: _551  and  _553
REMARK  216  A    between atoms: _553  and  _554
REMARK  217  A    between atoms: _553  and  _556
REMARK  218  A    between atoms: _558  and  _560
REMARK  219  A    between atoms: _560  and  _561
REMARK  220  A    between atoms: _564  and  _566
REMARK  221  A    between atoms: _566  and  _567
REMARK  222  A    between atoms: _566  and  _569
REMARK  223  A    between atoms: _569  and  _570
REMARK  224  A    between atoms: _570  and  _571
REMARK                            x       y       z     vdW  Elec       q    Type
REMARK                         _______ _______ _______ _____ _____    ______ ____
ROOT
ATOM      1  CB  HIS A   1      24.256  58.628   7.157  0.00  0.00    +0.072 C 
ENDROOT
BRANCH   1   2
ATOM      2  CG  HIS A   1      24.027  57.167   7.358  0.00  0.00    +0.082 A 
ATOM      3  ND1 HIS A   1      24.920  56.350   8.007  0.00  0.00    -0.227 NA
ATOM      4  CE1 HIS A   1      24.453  55.115   8.016  0.00  0.00    +0.199 A 
ATOM      5  NE2 HIS A   1      23.294  55.099   7.391  0.00  0.00    -0.221 NA
ATOM      6  CD2 HIS A   1      23.002  56.368   6.969  0.00  0.00    +0.115 A 
ENDBRANCH   1   2
BRANCH   1   7
ATOM      7  CA  HIS A   1      25.167  59.284   8.203  0.00  0.00    +0.139 C 
BRANCH   7   8
ATOM      8  N   HIS A   1      24.636  59.229   9.564  0.00  0.00    -0.239 NA
ATOM      9  H   HIS A   1      23.726  58.756   9.740  0.00  0.00    +0.142 HD
ENDBRANCH   7   8
BRANCH   7  10
ATOM     10  C   HIS A   1      25.385  60.745   7.807  0.00  0.00    +0.224 C 
ATOM     11  O   HIS A   1      26.417  61.100   7.236  0.00  0.00    -0.287 OA
ENDBRANCH   7  10
ENDBRANCH   1   7
TORSDOF 4
REMARK  Name = ../refined-set-2016/4b6p/4b6p_pocket.pdb
REMARK  224 active torsions:
REMARK  status: ('A' for Active; 'I' for Inactive)
REMARK    1  A    between atoms: _1  and  _3
REMARK    2  A    between atoms: _3  and  _4
REMARK    3  A    between atoms: _3  and  _6
REMARK    4  A    between atoms: _6  and  _7
REMARK    5  A    between atoms: _12  and  _14
REMARK    6  A    between atoms: _14  and  _15
REMARK    7  A    between atoms: _18  and  _19
REMARK    8  A    between atoms: _24  and  _26
REMARK    9  A    between atoms: _26  and  _27
REMARK   10  A    between atoms: _26  and  _29
REMARK   11  A    between atoms: _29  and  _30
REMARK   12  A    between atoms: _35  and  _37
REMARK   13  A    between atoms: _37  and  _38
REMARK   14  A    between atoms: _37  and  _40
REMARK   15  A    between atoms: _40  and  _41
REMARK   16  A    between atoms: _44  and  _46
REMARK   17  A    between atoms: _46  and  _47
REMARK   18  A    between atoms: _49  and  _51
REMARK   19  A    between atoms: _51  and  _52
REMARK   20  A    between atoms: _51  and  _54
REMARK   21  A    between atoms: _54  and  _55
REMARK   22  A    between atoms: _55  and  _56
REMARK   23  A    between atoms: _56  and  _57
REMARK   24  A    between atoms: _66  and  _68
REMARK   25  A    between atoms: _68  and  _69
REMARK   26  A    between atoms: _68  and  _71
REMARK   27  A    between atoms: _71  and  _72
REMARK   28  A    between atoms: _75  and  _77
REMARK   29  A    between atoms: _77  and  _78
REMARK   30  A    between atoms: _80  and  _82
REMARK   31  A    between atoms: _82  and  _83
REMARK   32  A    between atoms: _82  and  _85
REMARK   33  A    between atoms: _85  and  _86
REMARK   34  A    between atoms: _86  and  _87
REMARK   35  A    between atoms: _87  and  _88
REMARK   36  A    between atoms: _97  and  _99
REMARK   37  A    between atoms: _99  and  _100
REMARK   38  A    between atoms: _99  and  _102
REMARK   39  A    between atoms: _102  and  _103
REMARK   40  A    between atoms: _103  and  _104
REMARK   41  A    between atoms: _104  and  _105
REMARK   42  A    between atoms: _114  and  _116
REMARK   43  A    between atoms: _116  and  _117
REMARK   44  A    between atoms: _116  and  _119
REMARK   45  A    between atoms: _119  and  _120
REMARK   46  A    between atoms: _120  and  _121
REMARK   47  A    between atoms: _124  and  _126
REMARK   48  A    between atoms: _126  and  _127
REMARK   49  A    between atoms: _126  and  _129
REMARK   50  A    between atoms: _132  and  _134
REMARK   51  A    between atoms: _134  and  _135
REMARK   52  A    between atoms: _134  and  _137
REMARK   53  A    between atoms: _137  and  _138
REMARK   54  A    between atoms: _143  and  _144
REMARK   55  A    between atoms: _146  and  _148
REMARK   56  A    between atoms: _148  and  _149
REMARK   57  A    between atoms: _151  and  _153
REMARK   58  A    between atoms: _153  and  _154
REMARK   59  A    between atoms: _153  and  _156
REMARK   60  A    between atoms: _156  and  _157
REMARK   61  A    between atoms: _160  and  _162
REMARK   62  A    between atoms: _162  and  _163
REMARK   63  A    between atoms: _162  and  _165
REMARK   64  A    between atoms: _165  and  _166
REMARK   65  A    between atoms: _171  and  _173
REMARK   66  A    between atoms: _173  and  _174
REMARK   67  A    between atoms: _173  and  _176
REMARK   68  A    between atoms: _176  and  _177
REMARK   69  A    between atoms: _180  and  _182
REMARK   70  A    between atoms: _182  and  _183
REMARK   71  A    between atoms: _182  and  _185
REMARK   72  A    between atoms: _185  and  _186
REMARK   73  A    between atoms: _186  and  _187
REMARK   74  A    between atoms: _192  and  _194
REMARK   75  A    between atoms: _194  and  _195
REMARK   76  A    between atoms: _194  and  _197
REMARK   77  A    between atoms: _197  and  _198
REMARK   78  A    between atoms: _201  and  _203
REMARK   79  A    between atoms: _203  and  _204
REMARK   80  A    between atoms: _203  and  _206
REMARK   81  A    between atoms: _206  and  _207
REMARK   82  A    between atoms: _210  and  _212
REMARK   83  A    between atoms: _212  and  _213
REMARK   84  A    between atoms: _212  and  _215
REMARK   85  A    between atoms: _215  and  _216
REMARK   86  A    between atoms: _221  and  _223
REMARK   87  A    between atoms: _223  and  _224
REMARK   88  A    between atoms: _227  and  _229
REMARK   89  A    between atoms: _229  and  _230
REMARK   90  A    between atoms: _232  and  _234
REMARK   91  A    between atoms: _234  and  _235
REMARK   92  A    between atoms: _237  and  _239
REMARK   93  A    between atoms: _239  and  _240
REMARK   94  A    between atoms: _239  and  _242
REMARK   95  A    between atoms: _242  and  _243
REMARK   96  A    between atoms: _246  and  _248
REMARK   97  A    between atoms: _248  and  _249
REMARK   98  A    between atoms: _248  and  _251
REMARK   99  A    between atoms: _251  and  _252
REMARK  100  A    between atoms: _255  and  _257
REMARK  101  A    between atoms: _257  and  _258
REMARK  102  A    between atoms: _257  and  _260
REMARK  103  A    between atoms: _260  and  _261
REMARK  104  A    between atoms: _266  and  _268
REMARK  105  A    between atoms: _268  and  _269
REMARK  106  A    between atoms: _268  and  _271
REMARK  107  A    between atoms: _271  and  _272
REMARK  108  A    between atoms: _272  and  _273
REMARK  109  A    between atoms: _276  and  _278
REMARK  110  A    between atoms: _278  and  _279
REMARK  111  A    between atoms: _278  and  _281
REMARK  112  A    between atoms: _284  and  _286
REMARK  113  A    between atoms: _286  and  _287
REMARK  114  A    between atoms: _286  and  _289
REMARK  115  A    between atoms: _289  and  _290
REMARK  116  A    between atoms: _295  and  _297
REMARK  117  A    between atoms: _297  and  _298
REMARK  118  A    between atoms: _297  and  _300
REMARK  119  A    between atoms: _300  and  _301
REMARK  120  A    between atoms: _304  and  _306
REMARK  121  A    between atoms: _306  and  _307
REMARK  122  A    between atoms: _306  and  _309
REMARK  123  A    between atoms: _309  and  _310
REMARK  124  A    between atoms: _312  and  _314
REMARK  125  A    between atoms: _314  and  _315
REMARK  126  A    between atoms: _314  and  _317
REMARK  127  A    between atoms: _317  and  _318
REMARK  128  A    between atoms: _323  and  _325
REMARK  129  A    between atoms: _325  and  _326
REMARK  130  A    between atoms: _325  and  _328
REMARK  131  A    between atoms: _331  and  _333
REMARK  132  A    between atoms: _333  and  _334
REMARK  133  A    between atoms: _333  and  _336
REMARK  134  A    between atoms: _336  and  _337
REMARK  135  A    between atoms: _342  and  _344
REMARK  136  A    between atoms: _344  and  _345
REMARK  137  A    between atoms: _344  and  _347
REMARK  138  A    between atoms: _347  and  _348
REMARK  139  A    between atoms: _348  and  _349
REMARK  140  A    between atoms: _349  and  _350
REMARK  141  A    between atoms: _359  and  _361
REMARK  142  A    between atoms: _361  and  _362
REMARK  143  A    between atoms: _361  and  _364
REMARK  144  A    between atoms: _364  and  _365
REMARK  145  A    between atoms: _365  and  _366
REMARK  146  A    between atoms: _369  and  _371
REMARK  147  A    between atoms: _371  and  _372
REMARK  148  A    between atoms: _371  and  _374
REMARK  149  A    between atoms: _374  and  _375
REMARK  150  A    between atoms: _381  and  _383
REMARK  151  A    between atoms: _383  and  _384
REMARK  152  A    between atoms: _383  and  _386
REMARK  153  A    between atoms: _386  and  _387
REMARK  154  A    between atoms: _387  and  _388
REMARK  155  A    between atoms: _388  and  _389
REMARK  156  A    between atoms: _398  and  _400
REMARK  157  A    between atoms: _400  and  _401
REMARK  158  A    between atoms: _400  and  _403
REMARK  159  A    between atoms: _403  and  _404
REMARK  160  A    between atoms: _404  and  _405
REMARK  161  A    between atoms: _405  and  _406
REMARK  162  A    between atoms: _415  and  _417
REMARK  163  A    between atoms: _417  and  _418
REMARK  164  A    between atoms: _417  and  _420
REMARK  165  A    between atoms: _420  and  _421
REMARK  166  A    between atoms: _426  and  _428
REMARK  167  A    between atoms: _428  and  _429
REMARK  168  A    between atoms: _428  and  _431
REMARK  169  A    between atoms: _431  and  _432
REMARK  170  A    between atoms: _435  and  _437
REMARK  171  A    between atoms: _437  and  _438
REMARK  172  A    between atoms: _437  and  _440
REMARK  173  A    between atoms: _443  and  _445
REMARK  174  A    between atoms: _445  and  _446
REMARK  175  A    between atoms: _448  and  _450
REMARK  176  A    between atoms: _450  and  _451
REMARK  177  A    between atoms: _450  and  _453
REMARK  178  A    between atoms: _453  and  _454
REMARK  179  A    between atoms: _457  and  _459
REMARK  180  A    between atoms: _459  and  _460
REMARK  181  A    between atoms: _462  and  _464
REMARK  182  A    between atoms: _464  and  _465
REMARK  183  A    between atoms: _464  and  _467
REMARK  184  A    between atoms: _467  and  _468
REMARK  185  A    between atoms: _471  and  _473
REMARK  186  A    between atoms: _473  and  _474
REMARK  187  A    between atoms: _473  and  _476
REMARK  188  A    between atoms: _476  and  _477
REMARK  189  A    between atoms: _482  and  _483
REMARK  190  A    between atoms: _485  and  _487
REMARK  191  A    between atoms: _487  and  _488
REMARK  192  A    between atoms: _487  and  _490
REMARK  193  A    between atoms: _490  and  _491
REMARK  194  A    between atoms: _496  and  _498
REMARK  195  A    between atoms: _498  and  _499
REMARK  196  A    between atoms: _498  and  _501
REMARK  197  A    between atoms: _504  and  _506
REMARK  198  A    between atoms: _506  and  _507
REMARK  199  A    between atoms: _510  and  _512
REMARK  200  A    between atoms: _512  and  _513
REMARK  201  A    between atoms: _512  and  _515
REMARK  202  A    between atoms: _515  and  _516
REMARK  203  A    between atoms: _519  and  _521
REMARK  204  A    between atoms: _521  and  _522
REMARK  205  A    between atoms: _521  and  _524
REMARK  206  A    between atoms: _524  and  _525
REMARK  207  A    between atoms: _525  and  _526
REMARK  208  A    between atoms: _526  and  _527
REMARK  209  A    between atoms: _536  and  _538
REMARK  210  A    between atoms: _538  and  _539
REMARK  211  A    between atoms: _538  and  _541
REMARK  212  A    between atoms: _541  and  _542
REMARK  213  A    between atoms: _545  and  _547
REMARK  214  A    between atoms: _547  and  _548
REMARK  215  A    between atoms: _551  and  _553
REMARK  216  A    between atoms: _553  and  _554
REMARK  217  A    between atoms: _553  and  _556
REMARK  218  A    between atoms: _558  and  _560
REMARK  219  A    between atoms: _560  and  _561
REMARK  220  A    between atoms: _564  and  _566
REMARK  221  A    between atoms: _566  and  _567
REMARK  222  A    between atoms: _566  and  _569
REMARK  223  A    between atoms: _569  and  _570
REMARK  224  A    between atoms: _570  and  _571
REMARK                            x       y       z     vdW  Elec       q    Type
REMARK                         _______ _______ _______ _____ _____    ______ ____
ROOT
ATOM      1  C   ARG A   4      28.800  51.468  14.822  0.00  0.00    +0.241 C 
ATOM      2  O   ARG A   4      29.735  52.245  14.712  0.00  0.00    -0.273 OA
ATOM      3  N   ASP A   5      28.415  50.636  13.854  0.00  0.00    -0.297 N 
ATOM      4  H   ASP A   5      27.677  49.933  14.060  0.00  0.00    +0.150 HD
ENDROOT
BRANCH   3   5
ATOM      5  CA  ASP A   5      28.991  50.679  12.522  0.00  0.00    +0.160 C 
BRANCH   5   6
ATOM      6  C   ASP A   5      28.803  52.071  11.889  0.00  0.00    +0.241 C 
ATOM      7  N   ALA A   6      27.621  52.659  12.041  0.00  0.00    -0.297 N 
ATOM      8  H   ALA A   6      26.868  52.164  12.560  0.00  0.00    +0.150 HD
ATOM      9  O   ASP A   5      29.693  52.585  11.260  0.00  0.00    -0.273 OA
BRANCH   7  10
ATOM     10  CA  ALA A   6      27.356  54.000  11.488  0.00  0.00    +0.149 C 
ATOM     11  CB  ALA A   6      25.907  54.379  11.710  0.00  0.00    +0.031 C 
BRANCH  10  12
ATOM     12  C   ALA A   6      28.263  55.034  12.129  0.00  0.00    +0.241 C 
ATOM     13  N   CYS A   7      28.387  54.957  13.454  0.00  0.00    -0.296 N 
ATOM     14  H   CYS A   7      27.879  54.207  13.965  0.00  0.00    +0.150 HD
ATOM     15  O   ALA A   6      28.825  55.890  11.443  0.00  0.00    -0.273 OA
BRANCH  13  16
ATOM     16  CA  CYS A   7      29.212  55.890  14.208  0.00  0.00    +0.160 C 
BRANCH  16  17
ATOM     17  C   CYS A   7      30.698  55.722  13.990  0.00  0.00    +0.242 C 
ATOM     18  O   CYS A   7      31.434  56.687  14.179  0.00  0.00    -0.273 OA
ATOM     19  N   ALA A   8      31.157  54.522  13.638  0.00  0.00    -0.297 N 
ATOM     20  H   ALA A   8      30.491  53.729  13.537  0.00  0.00    +0.150 HD
BRANCH  19  21
ATOM     21  CA  ALA A   8      32.593  54.299  13.389  0.00  0.00    +0.149 C 
ATOM     22  CB  ALA A   8      32.899  52.813  13.142  0.00  0.00    +0.031 C 
BRANCH  21  23
ATOM     23  C   ALA A   8      33.096  55.141  12.225  0.00  0.00    +0.241 C 
ATOM     24  O   ALA A   8      34.304  55.348  12.102  0.00  0.00    -0.273 OA
ATOM     25  N   GLU A   9      32.167  55.602  11.373  0.00  0.00    -0.298 N 
ATOM     26  H   GLU A   9      31.180  55.306  11.514  0.00  0.00    +0.150 HD
BRANCH  25  27
ATOM     27  CA  GLU A   9      32.473  56.513  10.238  0.00  0.00    +0.137 C 
BRANCH  27  28
ATOM     28  C   GLU A   9      32.768  57.944  10.634  0.00  0.00    +0.227 C 
ATOM     29  O   GLU A   9      33.369  58.689   9.878  0.00  0.00    -0.286 OA
ENDBRANCH  27  28
BRANCH  27  30
ATOM     30  CB  GLU A   9      31.250  56.626   9.321  0.00  0.00    +0.039 C 
BRANCH  30  31
ATOM     31  CG  GLU A   9      31.484  56.119   7.997  0.00  0.00    +0.116 C 
BRANCH  31  32
ATOM     32  CD  GLU A   9      30.391  56.500   7.053  0.00  0.00    +0.365 C 
ATOM     33  OE2 GLU A   9      29.246  56.085   7.317  0.00  0.00    -0.246 OA
ATOM     34  OE1 GLU A   9      30.698  57.203   6.052  0.00  0.00    -0.246 OA
ENDBRANCH  31  32
ENDBRANCH  30  31
ENDBRANCH  27  30
ENDBRANCH  25  27
ENDBRANCH  21  23
ENDBRANCH  19  21
ENDBRANCH  16  17
BRANCH  16  35
ATOM     35  CB  CYS A   7      28.990  55.752  15.702  0.00  0.00    +0.098 C 
ATOM     36  SG  CYS A   7      27.394  56.195  16.275  0.00  0.00    -0.080 S 
ENDBRANCH  16  35
ENDBRANCH  13  16
ENDBRANCH  10  12
ENDBRANCH   7  10
ENDBRANCH   5   6
BRANCH   5  37
ATOM     37  CB  ASP A   5      28.300  49.657  11.617  0.00  0.00    +0.143 C 
BRANCH  37  38
ATOM     38  CG  ASP A   5      28.635  48.226  11.958  0.00  0.00    +0.367 C 
ATOM     39  OD2 ASP A   5      29.728  47.976  12.510  0.00  0.00    -0.246 OA
ATOM     40  OD1 ASP A   5      27.782  47.353  11.634  0.00  0.00    -0.246 OA
ENDBRANCH  37  38
ENDBRANCH   5  37
ENDBRANCH   3   5
BRANCH   1  41
ATOM     41  CA  ARG A   4      28.067  51.356  16.158  0.00  0.00    +0.149 C 
BRANCH  41  43
ATOM     42  C   LEU A   3      25.968  52.246  15.407  0.00  0.00    +0.241 C 
ATOM     43  N   ARG A   4      26.650  51.250  15.955  0.00  0.00    -0.297 N 
ATOM     44  H   ARG A   4      26.153  50.382  16.241  0.00  0.00    +0.150 HD
ATOM     45  O   LEU A   3      26.497  53.305  15.101  0.00  0.00    -0.273 OA
BRANCH  42  46
ATOM     46  CA  LEU A   3      24.471  52.003  15.185  0.00  0.00    +0.149 C 
BRANCH  46  48
ATOM     47  C   ALA A   2      24.640  50.168  13.624  0.00  0.00    +0.241 C 
ATOM     48  N   LEU A   3      24.227  50.609  14.800  0.00  0.00    -0.297 N 
ATOM     49  H   LEU A   3      23.730  49.968  15.451  0.00  0.00    +0.150 HD
ATOM     50  O   ALA A   2      25.288  50.896  12.842  0.00  0.00    -0.273 OA
BRANCH  47  51
ATOM     51  CA  ALA A   2      24.295  48.702  13.281  0.00  0.00    +0.149 C 
ATOM     52  CB  ALA A   2      22.817  48.567  12.832  0.00  0.00    +0.031 C 
BRANCH  51  55
ATOM     53  C   VAL A   1      25.756  47.752  15.025  0.00  0.00    +0.238 C 
ATOM     54  O   VAL A   1      26.680  48.481  14.687  0.00  0.00    -0.274 OA
ATOM     55  N   ALA A   2      24.579  47.778  14.409  0.00  0.00    -0.297 N 
ATOM     56  H   ALA A   2      23.831  47.129  14.727  0.00  0.00    +0.150 HD
BRANCH  53  57
ATOM     57  CA  VAL A   1      25.899  46.801  16.232  0.00  0.00    +0.145 C 
BRANCH  57  58
ATOM     58  CB  VAL A   1      26.329  45.351  15.820  0.00  0.00    +0.025 C 
ATOM     59  CG2 VAL A   1      26.623  44.505  17.070  0.00  0.00    +0.002 C 
ATOM     60  CG1 VAL A   1      27.540  45.356  14.829  0.00  0.00    +0.002 C 
ENDBRANCH  57  58
BRANCH  57  61
ATOM     61  N   VAL A   1      24.646  46.798  17.008  0.00  0.00    -0.238 NA
ATOM     62  H   VAL A   1      23.996  45.992  16.910  0.00  0.00    +0.142 HD
ENDBRANCH  57  61
ENDBRANCH  53  57
ENDBRANCH  51  55
ENDBRANCH  47  51
ENDBRANCH  46  48
BRANCH  46  63
ATOM     63  CB  LEU A   3      23.702  52.295  16.457  0.00  0.00    +0.029 C 
BRANCH  63  64
ATOM     64  CG  LEU A   3      23.539  53.712  16.940  0.00  0.00    +0.002 C 
ATOM     65  CD2 LEU A   3      22.576  53.719  18.171  0.00  0.00    +0.000 C 
ATOM     66  CD1 LEU A   3      22.992  54.533  15.768  0.00  0.00    +0.000 C 
ENDBRANCH  63  64
ENDBRANCH  46  63
ENDBRANCH  42  46
ENDBRANCH  41  43
BRANCH  41  67
ATOM     67  CB  ARG A   4      28.582  50.152  16.917  0.00  0.00    +0.033 C 
BRANCH  67  68
ATOM     68  CG  ARG A   4      30.088  50.065  16.986  0.00  0.00    +0.045 C 
BRANCH  68  69
ATOM     69  CD  ARG A   4      30.512  48.669  17.378  0.00  0.00    +0.174 C 
BRANCH  69  70
ATOM     70  NE  ARG A   4      31.961  48.455  17.460  0.00  0.00    -0.265 N 
ATOM     71  CZ  ARG A   4      32.646  48.186  18.586  0.00  0.00    +0.342 C 
ATOM     72  NH2 ARG A   4      32.074  48.145  19.801  0.00  0.00    -0.292 N 
ATOM     73 HH21 ARG A   4      32.650  47.932  20.640  0.00  0.00    +0.255 HD
ATOM     74 HH22 ARG A   4      31.055  48.326  19.902  0.00  0.00    +0.255 HD
ATOM     75  NH1 ARG A   4      33.937  47.966  18.522  0.00  0.00    -0.292 N 
ATOM     76 HH11 ARG A   4      34.473  47.757  19.389  0.00  0.00    +0.255 HD
ATOM     77 HH12 ARG A   4      34.425  48.000  17.604  0.00  0.00    +0.255 HD
ATOM     78  HE  ARG A   4      32.503  48.516  16.575  0.00  0.00    +0.259 HD
ENDBRANCH  69  70
ENDBRANCH  68  69
ENDBRANCH  67  68
ENDBRANCH  41  67
ENDBRANCH   1  41
TORSDOF 31
REMARK  Name = ../refined-set-2016/4b6p/4b6p_pocket.pdb
REMARK  224 active torsions:
REMARK  status: ('A' for Active; 'I' for Inactive)
REMARK    1  A    between atoms: _1  and  _3
REMARK    2  A    between atoms: _3  and  _4
REMARK    3  A    between atoms: _3  and  _6
REMARK    4  A    between atoms: _6  and  _7
REMARK    5  A    between atoms: _12  and  _14
REMARK    6  A    between atoms: _14  and  _15
REMARK    7  A    between atoms: _18  and  _19
REMARK    8  A    between atoms: _24  and  _26
REMARK    9  A    between atoms: _26  and  _27
REMARK   10  A    between atoms: _26  and  _29
REMARK   11  A    between atoms: _29  and  _30
REMARK   12  A    between atoms: _35  and  _37
REMARK   13  A    between atoms: _37  and  _38
REMARK   14  A    between atoms: _37  and  _40
REMARK   15  A    between atoms: _40  and  _41
REMARK   16  A    between atoms: _44  and  _46
REMARK   17  A    between atoms: _46  and  _47
REMARK   18  A    between atoms: _49  and  _51
REMARK   19  A    between atoms: _51  and  _52
REMARK   20  A    between atoms: _51  and  _54
REMARK   21  A    between atoms: _54  and  _55
REMARK   22  A    between atoms: _55  and  _56
REMARK   23  A    between atoms: _56  and  _57
REMARK   24  A    between atoms: _66  and  _68
REMARK   25  A    between atoms: _68  and  _69
REMARK   26  A    between atoms: _68  and  _71
REMARK   27  A    between atoms: _71  and  _72
REMARK   28  A    between atoms: _75  and  _77
REMARK   29  A    between atoms: _77  and  _78
REMARK   30  A    between atoms: _80  and  _82
REMARK   31  A    between atoms: _82  and  _83
REMARK   32  A    between atoms: _82  and  _85
REMARK   33  A    between atoms: _85  and  _86
REMARK   34  A    between atoms: _86  and  _87
REMARK   35  A    between atoms: _87  and  _88
REMARK   36  A    between atoms: _97  and  _99
REMARK   37  A    between atoms: _99  and  _100
REMARK   38  A    between atoms: _99  and  _102
REMARK   39  A    between atoms: _102  and  _103
REMARK   40  A    between atoms: _103  and  _104
REMARK   41  A    between atoms: _104  and  _105
REMARK   42  A    between atoms: _114  and  _116
REMARK   43  A    between atoms: _116  and  _117
REMARK   44  A    between atoms: _116  and  _119
REMARK   45  A    between atoms: _119  and  _120
REMARK   46  A    between atoms: _120  and  _121
REMARK   47  A    between atoms: _124  and  _126
REMARK   48  A    between atoms: _126  and  _127
REMARK   49  A    between atoms: _126  and  _129
REMARK   50  A    between atoms: _132  and  _134
REMARK   51  A    between atoms: _134  and  _135
REMARK   52  A    between atoms: _134  and  _137
REMARK   53  A    between atoms: _137  and  _138
REMARK   54  A    between atoms: _143  and  _144
REMARK   55  A    between atoms: _146  and  _148
REMARK   56  A    between atoms: _148  and  _149
REMARK   57  A    between atoms: _151  and  _153
REMARK   58  A    between atoms: _153  and  _154
REMARK   59  A    between atoms: _153  and  _156
REMARK   60  A    between atoms: _156  and  _157
REMARK   61  A    between atoms: _160  and  _162
REMARK   62  A    between atoms: _162  and  _163
REMARK   63  A    between atoms: _162  and  _165
REMARK   64  A    between atoms: _165  and  _166
REMARK   65  A    between atoms: _171  and  _173
REMARK   66  A    between atoms: _173  and  _174
REMARK   67  A    between atoms: _173  and  _176
REMARK   68  A    between atoms: _176  and  _177
REMARK   69  A    between atoms: _180  and  _182
REMARK   70  A    between atoms: _182  and  _183
REMARK   71  A    between atoms: _182  and  _185
REMARK   72  A    between atoms: _185  and  _186
REMARK   73  A    between atoms: _186  and  _187
REMARK   74  A    between atoms: _192  and  _194
REMARK   75  A    between atoms: _194  and  _195
REMARK   76  A    between atoms: _194  and  _197
REMARK   77  A    between atoms: _197  and  _198
REMARK   78  A    between atoms: _201  and  _203
REMARK   79  A    between atoms: _203  and  _204
REMARK   80  A    between atoms: _203  and  _206
REMARK   81  A    between atoms: _206  and  _207
REMARK   82  A    between atoms: _210  and  _212
REMARK   83  A    between atoms: _212  and  _213
REMARK   84  A    between atoms: _212  and  _215
REMARK   85  A    between atoms: _215  and  _216
REMARK   86  A    between atoms: _221  and  _223
REMARK   87  A    between atoms: _223  and  _224
REMARK   88  A    between atoms: _227  and  _229
REMARK   89  A    between atoms: _229  and  _230
REMARK   90  A    between atoms: _232  and  _234
REMARK   91  A    between atoms: _234  and  _235
REMARK   92  A    between atoms: _237  and  _239
REMARK   93  A    between atoms: _239  and  _240
REMARK   94  A    between atoms: _239  and  _242
REMARK   95  A    between atoms: _242  and  _243
REMARK   96  A    between atoms: _246  and  _248
REMARK   97  A    between atoms: _248  and  _249
REMARK   98  A    between atoms: _248  and  _251
REMARK   99  A    between atoms: _251  and  _252
REMARK  100  A    between atoms: _255  and  _257
REMARK  101  A    between atoms: _257  and  _258
REMARK  102  A    between atoms: _257  and  _260
REMARK  103  A    between atoms: _260  and  _261
REMARK  104  A    between atoms: _266  and  _268
REMARK  105  A    between atoms: _268  and  _269
REMARK  106  A    between atoms: _268  and  _271
REMARK  107  A    between atoms: _271  and  _272
REMARK  108  A    between atoms: _272  and  _273
REMARK  109  A    between atoms: _276  and  _278
REMARK  110  A    between atoms: _278  and  _279
REMARK  111  A    between atoms: _278  and  _281
REMARK  112  A    between atoms: _284  and  _286
REMARK  113  A    between atoms: _286  and  _287
REMARK  114  A    between atoms: _286  and  _289
REMARK  115  A    between atoms: _289  and  _290
REMARK  116  A    between atoms: _295  and  _297
REMARK  117  A    between atoms: _297  and  _298
REMARK  118  A    between atoms: _297  and  _300
REMARK  119  A    between atoms: _300  and  _301
REMARK  120  A    between atoms: _304  and  _306
REMARK  121  A    between atoms: _306  and  _307
REMARK  122  A    between atoms: _306  and  _309
REMARK  123  A    between atoms: _309  and  _310
REMARK  124  A    between atoms: _312  and  _314
REMARK  125  A    between atoms: _314  and  _315
REMARK  126  A    between atoms: _314  and  _317
REMARK  127  A    between atoms: _317  and  _318
REMARK  128  A    between atoms: _323  and  _325
REMARK  129  A    between atoms: _325  and  _326
REMARK  130  A    between atoms: _325  and  _328
REMARK  131  A    between atoms: _331  and  _333
REMARK  132  A    between atoms: _333  and  _334
REMARK  133  A    between atoms: _333  and  _336
REMARK  134  A    between atoms: _336  and  _337
REMARK  135  A    between atoms: _342  and  _344
REMARK  136  A    between atoms: _344  and  _345
REMARK  137  A    between atoms: _344  and  _347
REMARK  138  A    between atoms: _347  and  _348
REMARK  139  A    between atoms: _348  and  _349
REMARK  140  A    between atoms: _349  and  _350
REMARK  141  A    between atoms: _359  and  _361
REMARK  142  A    between atoms: _361  and  _362
REMARK  143  A    between atoms: _361  and  _364
REMARK  144  A    between atoms: _364  and  _365
REMARK  145  A    between atoms: _365  and  _366
REMARK  146  A    between atoms: _369  and  _371
REMARK  147  A    between atoms: _371  and  _372
REMARK  148  A    between atoms: _371  and  _374
REMARK  149  A    between atoms: _374  and  _375
REMARK  150  A    between atoms: _381  and  _383
REMARK  151  A    between atoms: _383  and  _384
REMARK  152  A    between atoms: _383  and  _386
REMARK  153  A    between atoms: _386  and  _387
REMARK  154  A    between atoms: _387  and  _388
REMARK  155  A    between atoms: _388  and  _389
REMARK  156  A    between atoms: _398  and  _400
REMARK  157  A    between atoms: _400  and  _401
REMARK  158  A    between atoms: _400  and  _403
REMARK  159  A    between atoms: _403  and  _404
REMARK  160  A    between atoms: _404  and  _405
REMARK  161  A    between atoms: _405  and  _406
REMARK  162  A    between atoms: _415  and  _417
REMARK  163  A    between atoms: _417  and  _418
REMARK  164  A    between atoms: _417  and  _420
REMARK  165  A    between atoms: _420  and  _421
REMARK  166  A    between atoms: _426  and  _428
REMARK  167  A    between atoms: _428  and  _429
REMARK  168  A    between atoms: _428  and  _431
REMARK  169  A    between atoms: _431  and  _432
REMARK  170  A    between atoms: _435  and  _437
REMARK  171  A    between atoms: _437  and  _438
REMARK  172  A    between atoms: _437  and  _440
REMARK  173  A    between atoms: _443  and  _445
REMARK  174  A    between atoms: _445  and  _446
REMARK  175  A    between atoms: _448  and  _450
REMARK  176  A    between atoms: _450  and  _451
REMARK  177  A    between atoms: _450  and  _453
REMARK  178  A    between atoms: _453  and  _454
REMARK  179  A    between atoms: _457  and  _459
REMARK  180  A    between atoms: _459  and  _460
REMARK  181  A    between atoms: _462  and  _464
REMARK  182  A    between atoms: _464  and  _465
REMARK  183  A    between atoms: _464  and  _467
REMARK  184  A    between atoms: _467  and  _468
REMARK  185  A    between atoms: _471  and  _473
REMARK  186  A    between atoms: _473  and  _474
REMARK  187  A    between atoms: _473  and  _476
REMARK  188  A    between atoms: _476  and  _477
REMARK  189  A    between atoms: _482  and  _483
REMARK  190  A    between atoms: _485  and  _487
REMARK  191  A    between atoms: _487  and  _488
REMARK  192  A    between atoms: _487  and  _490
REMARK  193  A    between atoms: _490  and  _491
REMARK  194  A    between atoms: _496  and  _498
REMARK  195  A    between atoms: _498  and  _499
REMARK  196  A    between atoms: _498  and  _501
REMARK  197  A    between atoms: _504  and  _506
REMARK  198  A    between atoms: _506  and  _507
REMARK  199  A    between atoms: _510  and  _512
REMARK  200  A    between atoms: _512  and  _513
REMARK  201  A    between atoms: _512  and  _515
REMARK  202  A    between atoms: _515  and  _516
REMARK  203  A    between atoms: _519  and  _521
REMARK  204  A    between atoms: _521  and  _522
REMARK  205  A    between atoms: _521  and  _524
REMARK  206  A    between atoms: _524  and  _525
REMARK  207  A    between atoms: _525  and  _526
REMARK  208  A    between atoms: _526  and  _527
REMARK  209  A    between atoms: _536  and  _538
REMARK  210  A    between atoms: _538  and  _539
REMARK  211  A    between atoms: _538  and  _541
REMARK  212  A    between atoms: _541  and  _542
REMARK  213  A    between atoms: _545  and  _547
REMARK  214  A    between atoms: _547  and  _548
REMARK  215  A    between atoms: _551  and  _553
REMARK  216  A    between atoms: _553  and  _554
REMARK  217  A    between atoms: _553  and  _556
REMARK  218  A    between atoms: _558  and  _560
REMARK  219  A    between atoms: _560  and  _561
REMARK  220  A    between atoms: _564  and  _566
REMARK  221  A    between atoms: _566  and  _567
REMARK  222  A    between atoms: _566  and  _569
REMARK  223  A    between atoms: _569  and  _570
REMARK  224  A    between atoms: _570  and  _571
REMARK                            x       y       z     vdW  Elec       q    Type
REMARK                         _______ _______ _______ _____ _____    ______ ____
ROOT
ATOM      1  O   HOH     1      22.907  54.988   3.238  0.00  0.00    +0.000 OA
ENDROOT
TORSDOF 0
REMARK  Name = ../refined-set-2016/4b6p/4b6p_pocket.pdb
REMARK  224 active torsions:
REMARK  status: ('A' for Active; 'I' for Inactive)
REMARK    1  A    between atoms: _1  and  _3
REMARK    2  A    between atoms: _3  and  _4
REMARK    3  A    between atoms: _3  and  _6
REMARK    4  A    between atoms: _6  and  _7
REMARK    5  A    between atoms: _12  and  _14
REMARK    6  A    between atoms: _14  and  _15
REMARK    7  A    between atoms: _18  and  _19
REMARK    8  A    between atoms: _24  and  _26
REMARK    9  A    between atoms: _26  and  _27
REMARK   10  A    between atoms: _26  and  _29
REMARK   11  A    between atoms: _29  and  _30
REMARK   12  A    between atoms: _35  and  _37
REMARK   13  A    between atoms: _37  and  _38
REMARK   14  A    between atoms: _37  and  _40
REMARK   15  A    between atoms: _40  and  _41
REMARK   16  A    between atoms: _44  and  _46
REMARK   17  A    between atoms: _46  and  _47
REMARK   18  A    between atoms: _49  and  _51
REMARK   19  A    between atoms: _51  and  _52
REMARK   20  A    between atoms: _51  and  _54
REMARK   21  A    between atoms: _54  and  _55
REMARK   22  A    between atoms: _55  and  _56
REMARK   23  A    between atoms: _56  and  _57
REMARK   24  A    between atoms: _66  and  _68
REMARK   25  A    between atoms: _68  and  _69
REMARK   26  A    between atoms: _68  and  _71
REMARK   27  A    between atoms: _71  and  _72
REMARK   28  A    between atoms: _75  and  _77
REMARK   29  A    between atoms: _77  and  _78
REMARK   30  A    between atoms: _80  and  _82
REMARK   31  A    between atoms: _82  and  _83
REMARK   32  A    between atoms: _82  and  _85
REMARK   33  A    between atoms: _85  and  _86
REMARK   34  A    between atoms: _86  and  _87
REMARK   35  A    between atoms: _87  and  _88
REMARK   36  A    between atoms: _97  and  _99
REMARK   37  A    between atoms: _99  and  _100
REMARK   38  A    between atoms: _99  and  _102
REMARK   39  A    between atoms: _102  and  _103
REMARK   40  A    between atoms: _103  and  _104
REMARK   41  A    between atoms: _104  and  _105
REMARK   42  A    between atoms: _114  and  _116
REMARK   43  A    between atoms: _116  and  _117
REMARK   44  A    between atoms: _116  and  _119
REMARK   45  A    between atoms: _119  and  _120
REMARK   46  A    between atoms: _120  and  _121
REMARK   47  A    between atoms: _124  and  _126
REMARK   48  A    between atoms: _126  and  _127
REMARK   49  A    between atoms: _126  and  _129
REMARK   50  A    between atoms: _132  and  _134
REMARK   51  A    between atoms: _134  and  _135
REMARK   52  A    between atoms: _134  and  _137
REMARK   53  A    between atoms: _137  and  _138
REMARK   54  A    between atoms: _143  and  _144
REMARK   55  A    between atoms: _146  and  _148
REMARK   56  A    between atoms: _148  and  _149
REMARK   57  A    between atoms: _151  and  _153
REMARK   58  A    between atoms: _153  and  _154
REMARK   59  A    between atoms: _153  and  _156
REMARK   60  A    between atoms: _156  and  _157
REMARK   61  A    between atoms: _160  and  _162
REMARK   62  A    between atoms: _162  and  _163
REMARK   63  A    between atoms: _162  and  _165
REMARK   64  A    between atoms: _165  and  _166
REMARK   65  A    between atoms: _171  and  _173
REMARK   66  A    between atoms: _173  and  _174
REMARK   67  A    between atoms: _173  and  _176
REMARK   68  A    between atoms: _176  and  _177
REMARK   69  A    between atoms: _180  and  _182
REMARK   70  A    between atoms: _182  and  _183
REMARK   71  A    between atoms: _182  and  _185
REMARK   72  A    between atoms: _185  and  _186
REMARK   73  A    between atoms: _186  and  _187
REMARK   74  A    between atoms: _192  and  _194
REMARK   75  A    between atoms: _194  and  _195
REMARK   76  A    between atoms: _194  and  _197
REMARK   77  A    between atoms: _197  and  _198
REMARK   78  A    between atoms: _201  and  _203
REMARK   79  A    between atoms: _203  and  _204
REMARK   80  A    between atoms: _203  and  _206
REMARK   81  A    between atoms: _206  and  _207
REMARK   82  A    between atoms: _210  and  _212
REMARK   83  A    between atoms: _212  and  _213
REMARK   84  A    between atoms: _212  and  _215
REMARK   85  A    between atoms: _215  and  _216
REMARK   86  A    between atoms: _221  and  _223
REMARK   87  A    between atoms: _223  and  _224
REMARK   88  A    between atoms: _227  and  _229
REMARK   89  A    between atoms: _229  and  _230
REMARK   90  A    between atoms: _232  and  _234
REMARK   91  A    between atoms: _234  and  _235
REMARK   92  A    between atoms: _237  and  _239
REMARK   93  A    between atoms: _239  and  _240
REMARK   94  A    between atoms: _239  and  _242
REMARK   95  A    between atoms: _242  and  _243
REMARK   96  A    between atoms: _246  and  _248
REMARK   97  A    between atoms: _248  and  _249
REMARK   98  A    between atoms: _248  and  _251
REMARK   99  A    between atoms: _251  and  _252
REMARK  100  A    between atoms: _255  and  _257
REMARK  101  A    between atoms: _257  and  _258
REMARK  102  A    between atoms: _257  and  _260
REMARK  103  A    between atoms: _260  and  _261
REMARK  104  A    between atoms: _266  and  _268
REMARK  105  A    between atoms: _268  and  _269
REMARK  106  A    between atoms: _268  and  _271
REMARK  107  A    between atoms: _271  and  _272
REMARK  108  A    between atoms: _272  and  _273
REMARK  109  A    between atoms: _276  and  _278
REMARK  110  A    between atoms: _278  and  _279
REMARK  111  A    between atoms: _278  and  _281
REMARK  112  A    between atoms: _284  and  _286
REMARK  113  A    between atoms: _286  and  _287
REMARK  114  A    between atoms: _286  and  _289
REMARK  115  A    between atoms: _289  and  _290
REMARK  116  A    between atoms: _295  and  _297
REMARK  117  A    between atoms: _297  and  _298
REMARK  118  A    between atoms: _297  and  _300
REMARK  119  A    between atoms: _300  and  _301
REMARK  120  A    between atoms: _304  and  _306
REMARK  121  A    between atoms: _306  and  _307
REMARK  122  A    between atoms: _306  and  _309
REMARK  123  A    between atoms: _309  and  _310
REMARK  124  A    between atoms: _312  and  _314
REMARK  125  A    between atoms: _314  and  _315
REMARK  126  A    between atoms: _314  and  _317
REMARK  127  A    between atoms: _317  and  _318
REMARK  128  A    between atoms: _323  and  _325
REMARK  129  A    between atoms: _325  and  _326
REMARK  130  A    between atoms: _325  and  _328
REMARK  131  A    between atoms: _331  and  _333
REMARK  132  A    between atoms: _333  and  _334
REMARK  133  A    between atoms: _333  and  _336
REMARK  134  A    between atoms: _336  and  _337
REMARK  135  A    between atoms: _342  and  _344
REMARK  136  A    between atoms: _344  and  _345
REMARK  137  A    between atoms: _344  and  _347
REMARK  138  A    between atoms: _347  and  _348
REMARK  139  A    between atoms: _348  and  _349
REMARK  140  A    between atoms: _349  and  _350
REMARK  141  A    between atoms: _359  and  _361
REMARK  142  A    between atoms: _361  and  _362
REMARK  143  A    between atoms: _361  and  _364
REMARK  144  A    between atoms: _364  and  _365
REMARK  145  A    between atoms: _365  and  _366
REMARK  146  A    between atoms: _369  and  _371
REMARK  147  A    between atoms: _371  and  _372
REMARK  148  A    between atoms: _371  and  _374
REMARK  149  A    between atoms: _374  and  _375
REMARK  150  A    between atoms: _381  and  _383
REMARK  151  A    between atoms: _383  and  _384
REMARK  152  A    between atoms: _383  and  _386
REMARK  153  A    between atoms: _386  and  _387
REMARK  154  A    between atoms: _387  and  _388
REMARK  155  A    between atoms: _388  and  _389
REMARK  156  A    between atoms: _398  and  _400
REMARK  157  A    between atoms: _400  and  _401
REMARK  158  A    between atoms: _400  and  _403
REMARK  159  A    between atoms: _403  and  _404
REMARK  160  A    between atoms: _404  and  _405
REMARK  161  A    between atoms: _405  and  _406
REMARK  162  A    between atoms: _415  and  _417
REMARK  163  A    between atoms: _417  and  _418
REMARK  164  A    between atoms: _417  and  _420
REMARK  165  A    between atoms: _420  and  _421
REMARK  166  A    between atoms: _426  and  _428
REMARK  167  A    between atoms: _428  and  _429
REMARK  168  A    between atoms: _428  and  _431
REMARK  169  A    between atoms: _431  and  _432
REMARK  170  A    between atoms: _435  and  _437
REMARK  171  A    between atoms: _437  and  _438
REMARK  172  A    between atoms: _437  and  _440
REMARK  173  A    between atoms: _443  and  _445
REMARK  174  A    between atoms: _445  and  _446
REMARK  175  A    between atoms: _448  and  _450
REMARK  176  A    between atoms: _450  and  _451
REMARK  177  A    between atoms: _450  and  _453
REMARK  178  A    between atoms: _453  and  _454
REMARK  179  A    between atoms: _457  and  _459
REMARK  180  A    between atoms: _459  and  _460
REMARK  181  A    between atoms: _462  and  _464
REMARK  182  A    between atoms: _464  and  _465
REMARK  183  A    between atoms: _464  and  _467
REMARK  184  A    between atoms: _467  and  _468
REMARK  185  A    between atoms: _471  and  _473
REMARK  186  A    between atoms: _473  and  _474
REMARK  187  A    between atoms: _473  and  _476
REMARK  188  A    between atoms: _476  and  _477
REMARK  189  A    between atoms: _482  and  _483
REMARK  190  A    between atoms: _485  and  _487
REMARK  191  A    between atoms: _487  and  _488
REMARK  192  A    between atoms: _487  and  _490
REMARK  193  A    between atoms: _490  and  _491
REMARK  194  A    between atoms: _496  and  _498
REMARK  195  A    between atoms: _498  and  _499
REMARK  196  A    between atoms: _498  and  _501
REMARK  197  A    between atoms: _504  and  _506
REMARK  198  A    between atoms: _506  and  _507
REMARK  199  A    between atoms: _510  and  _512
REMARK  200  A    between atoms: _512  and  _513
REMARK  201  A    between atoms: _512  and  _515
REMARK  202  A    between atoms: _515  and  _516
REMARK  203  A    between atoms: _519  and  _521
REMARK  204  A    between atoms: _521  and  _522
REMARK  205  A    between atoms: _521  and  _524
REMARK  206  A    between atoms: _524  and  _525
REMARK  207  A    between atoms: _525  and  _526
REMARK  208  A    between atoms: _526  and  _527
REMARK  209  A    between atoms: _536  and  _538
REMARK  210  A    between atoms: _538  and  _539
REMARK  211  A    between atoms: _538  and  _541
REMARK  212  A    between atoms: _541  and  _542
REMARK  213  A    between atoms: _545  and  _547
REMARK  214  A    between atoms: _547  and  _548
REMARK  215  A    between atoms: _551  and  _553
REMARK  216  A    between atoms: _553  and  _554
REMARK  217  A    between atoms: _553  and  _556
REMARK  218  A    between atoms: _558  and  _560
REMARK  219  A    between atoms: _560  and  _561
REMARK  220  A    between atoms: _564  and  _566
REMARK  221  A    between atoms: _566  and  _567
REMARK  222  A    between atoms: _566  and  _569
REMARK  223  A    between atoms: _569  and  _570
REMARK  224  A    between atoms: _570  and  _571
REMARK                            x       y       z     vdW  Elec       q    Type
REMARK                         _______ _______ _______ _____ _____    ______ ____
ROOT
ATOM      1  O   HOH     1      25.500  47.576   9.909  0.00  0.00    +0.000 OA
ENDROOT
TORSDOF 0
REMARK  Name = ../refined-set-2016/4b6p/4b6p_pocket.pdb
REMARK  224 active torsions:
REMARK  status: ('A' for Active; 'I' for Inactive)
REMARK    1  A    between atoms: _1  and  _3
REMARK    2  A    between atoms: _3  and  _4
REMARK    3  A    between atoms: _3  and  _6
REMARK    4  A    between atoms: _6  and  _7
REMARK    5  A    between atoms: _12  and  _14
REMARK    6  A    between atoms: _14  and  _15
REMARK    7  A    between atoms: _18  and  _19
REMARK    8  A    between atoms: _24  and  _26
REMARK    9  A    between atoms: _26  and  _27
REMARK   10  A    between atoms: _26  and  _29
REMARK   11  A    between atoms: _29  and  _30
REMARK   12  A    between atoms: _35  and  _37
REMARK   13  A    between atoms: _37  and  _38
REMARK   14  A    between atoms: _37  and  _40
REMARK   15  A    between atoms: _40  and  _41
REMARK   16  A    between atoms: _44  and  _46
REMARK   17  A    between atoms: _46  and  _47
REMARK   18  A    between atoms: _49  and  _51
REMARK   19  A    between atoms: _51  and  _52
REMARK   20  A    between atoms: _51  and  _54
REMARK   21  A    between atoms: _54  and  _55
REMARK   22  A    between atoms: _55  and  _56
REMARK   23  A    between atoms: _56  and  _57
REMARK   24  A    between atoms: _66  and  _68
REMARK   25  A    between atoms: _68  and  _69
REMARK   26  A    between atoms: _68  and  _71
REMARK   27  A    between atoms: _71  and  _72
REMARK   28  A    between atoms: _75  and  _77
REMARK   29  A    between atoms: _77  and  _78
REMARK   30  A    between atoms: _80  and  _82
REMARK   31  A    between atoms: _82  and  _83
REMARK   32  A    between atoms: _82  and  _85
REMARK   33  A    between atoms: _85  and  _86
REMARK   34  A    between atoms: _86  and  _87
REMARK   35  A    between atoms: _87  and  _88
REMARK   36  A    between atoms: _97  and  _99
REMARK   37  A    between atoms: _99  and  _100
REMARK   38  A    between atoms: _99  and  _102
REMARK   39  A    between atoms: _102  and  _103
REMARK   40  A    between atoms: _103  and  _104
REMARK   41  A    between atoms: _104  and  _105
REMARK   42  A    between atoms: _114  and  _116
REMARK   43  A    between atoms: _116  and  _117
REMARK   44  A    between atoms: _116  and  _119
REMARK   45  A    between atoms: _119  and  _120
REMARK   46  A    between atoms: _120  and  _121
REMARK   47  A    between atoms: _124  and  _126
REMARK   48  A    between atoms: _126  and  _127
REMARK   49  A    between atoms: _126  and  _129
REMARK   50  A    between atoms: _132  and  _134
REMARK   51  A    between atoms: _134  and  _135
REMARK   52  A    between atoms: _134  and  _137
REMARK   53  A    between atoms: _137  and  _138
REMARK   54  A    between atoms: _143  and  _144
REMARK   55  A    between atoms: _146  and  _148
REMARK   56  A    between atoms: _148  and  _149
REMARK   57  A    between atoms: _151  and  _153
REMARK   58  A    between atoms: _153  and  _154
REMARK   59  A    between atoms: _153  and  _156
REMARK   60  A    between atoms: _156  and  _157
REMARK   61  A    between atoms: _160  and  _162
REMARK   62  A    between atoms: _162  and  _163
REMARK   63  A    between atoms: _162  and  _165
REMARK   64  A    between atoms: _165  and  _166
REMARK   65  A    between atoms: _171  and  _173
REMARK   66  A    between atoms: _173  and  _174
REMARK   67  A    between atoms: _173  and  _176
REMARK   68  A    between atoms: _176  and  _177
REMARK   69  A    between atoms: _180  and  _182
REMARK   70  A    between atoms: _182  and  _183
REMARK   71  A    between atoms: _182  and  _185
REMARK   72  A    between atoms: _185  and  _186
REMARK   73  A    between atoms: _186  and  _187
REMARK   74  A    between atoms: _192  and  _194
REMARK   75  A    between atoms: _194  and  _195
REMARK   76  A    between atoms: _194  and  _197
REMARK   77  A    between atoms: _197  and  _198
REMARK   78  A    between atoms: _201  and  _203
REMARK   79  A    between atoms: _203  and  _204
REMARK   80  A    between atoms: _203  and  _206
REMARK   81  A    between atoms: _206  and  _207
REMARK   82  A    between atoms: _210  and  _212
REMARK   83  A    between atoms: _212  and  _213
REMARK   84  A    between atoms: _212  and  _215
REMARK   85  A    between atoms: _215  and  _216
REMARK   86  A    between atoms: _221  and  _223
REMARK   87  A    between atoms: _223  and  _224
REMARK   88  A    between atoms: _227  and  _229
REMARK   89  A    between atoms: _229  and  _230
REMARK   90  A    between atoms: _232  and  _234
REMARK   91  A    between atoms: _234  and  _235
REMARK   92  A    between atoms: _237  and  _239
REMARK   93  A    between atoms: _239  and  _240
REMARK   94  A    between atoms: _239  and  _242
REMARK   95  A    between atoms: _242  and  _243
REMARK   96  A    between atoms: _246  and  _248
REMARK   97  A    between atoms: _248  and  _249
REMARK   98  A    between atoms: _248  and  _251
REMARK   99  A    between atoms: _251  and  _252
REMARK  100  A    between atoms: _255  and  _257
REMARK  101  A    between atoms: _257  and  _258
REMARK  102  A    between atoms: _257  and  _260
REMARK  103  A    between atoms: _260  and  _261
REMARK  104  A    between atoms: _266  and  _268
REMARK  105  A    between atoms: _268  and  _269
REMARK  106  A    between atoms: _268  and  _271
REMARK  107  A    between atoms: _271  and  _272
REMARK  108  A    between atoms: _272  and  _273
REMARK  109  A    between atoms: _276  and  _278
REMARK  110  A    between atoms: _278  and  _279
REMARK  111  A    between atoms: _278  and  _281
REMARK  112  A    between atoms: _284  and  _286
REMARK  113  A    between atoms: _286  and  _287
REMARK  114  A    between atoms: _286  and  _289
REMARK  115  A    between atoms: _289  and  _290
REMARK  116  A    between atoms: _295  and  _297
REMARK  117  A    between atoms: _297  and  _298
REMARK  118  A    between atoms: _297  and  _300
REMARK  119  A    between atoms: _300  and  _301
REMARK  120  A    between atoms: _304  and  _306
REMARK  121  A    between atoms: _306  and  _307
REMARK  122  A    between atoms: _306  and  _309
REMARK  123  A    between atoms: _309  and  _310
REMARK  124  A    between atoms: _312  and  _314
REMARK  125  A    between atoms: _314  and  _315
REMARK  126  A    between atoms: _314  and  _317
REMARK  127  A    between atoms: _317  and  _318
REMARK  128  A    between atoms: _323  and  _325
REMARK  129  A    between atoms: _325  and  _326
REMARK  130  A    between atoms: _325  and  _328
REMARK  131  A    between atoms: _331  and  _333
REMARK  132  A    between atoms: _333  and  _334
REMARK  133  A    between atoms: _333  and  _336
REMARK  134  A    between atoms: _336  and  _337
REMARK  135  A    between atoms: _342  and  _344
REMARK  136  A    between atoms: _344  and  _345
REMARK  137  A    between atoms: _344  and  _347
REMARK  138  A    between atoms: _347  and  _348
REMARK  139  A    between atoms: _348  and  _349
REMARK  140  A    between atoms: _349  and  _350
REMARK  141  A    between atoms: _359  and  _361
REMARK  142  A    between atoms: _361  and  _362
REMARK  143  A    between atoms: _361  and  _364
REMARK  144  A    between atoms: _364  and  _365
REMARK  145  A    between atoms: _365  and  _366
REMARK  146  A    between atoms: _369  and  _371
REMARK  147  A    between atoms: _371  and  _372
REMARK  148  A    between atoms: _371  and  _374
REMARK  149  A    between atoms: _374  and  _375
REMARK  150  A    between atoms: _381  and  _383
REMARK  151  A    between atoms: _383  and  _384
REMARK  152  A    between atoms: _383  and  _386
REMARK  153  A    between atoms: _386  and  _387
REMARK  154  A    between atoms: _387  and  _388
REMARK  155  A    between atoms: _388  and  _389
REMARK  156  A    between atoms: _398  and  _400
REMARK  157  A    between atoms: _400  and  _401
REMARK  158  A    between atoms: _400  and  _403
REMARK  159  A    between atoms: _403  and  _404
REMARK  160  A    between atoms: _404  and  _405
REMARK  161  A    between atoms: _405  and  _406
REMARK  162  A    between atoms: _415  and  _417
REMARK  163  A    between atoms: _417  and  _418
REMARK  164  A    between atoms: _417  and  _420
REMARK  165  A    between atoms: _420  and  _421
REMARK  166  A    between atoms: _426  and  _428
REMARK  167  A    between atoms: _428  and  _429
REMARK  168  A    between atoms: _428  and  _431
REMARK  169  A    between atoms: _431  and  _432
REMARK  170  A    between atoms: _435  and  _437
REMARK  171  A    between atoms: _437  and  _438
REMARK  172  A    between atoms: _437  and  _440
REMARK  173  A    between atoms: _443  and  _445
REMARK  174  A    between atoms: _445  and  _446
REMARK  175  A    between atoms: _448  and  _450
REMARK  176  A    between atoms: _450  and  _451
REMARK  177  A    between atoms: _450  and  _453
REMARK  178  A    between atoms: _453  and  _454
REMARK  179  A    between atoms: _457  and  _459
REMARK  180  A    between atoms: _459  and  _460
REMARK  181  A    between atoms: _462  and  _464
REMARK  182  A    between atoms: _464  and  _465
REMARK  183  A    between atoms: _464  and  _467
REMARK  184  A    between atoms: _467  and  _468
REMARK  185  A    between atoms: _471  and  _473
REMARK  186  A    between atoms: _473  and  _474
REMARK  187  A    between atoms: _473  and  _476
REMARK  188  A    between atoms: _476  and  _477
REMARK  189  A    between atoms: _482  and  _483
REMARK  190  A    between atoms: _485  and  _487
REMARK  191  A    between atoms: _487  and  _488
REMARK  192  A    between atoms: _487  and  _490
REMARK  193  A    between atoms: _490  and  _491
REMARK  194  A    between atoms: _496  and  _498
REMARK  195  A    between atoms: _498  and  _499
REMARK  196  A    between atoms: _498  and  _501
REMARK  197  A    between atoms: _504  and  _506
REMARK  198  A    between atoms: _506  and  _507
REMARK  199  A    between atoms: _510  and  _512
REMARK  200  A    between atoms: _512  and  _513
REMARK  201  A    between atoms: _512  and  _515
REMARK  202  A    between atoms: _515  and  _516
REMARK  203  A    between atoms: _519  and  _521
REMARK  204  A    between atoms: _521  and  _522
REMARK  205  A    between atoms: _521  and  _524
REMARK  206  A    between atoms: _524  and  _525
REMARK  207  A    between atoms: _525  and  _526
REMARK  208  A    between atoms: _526  and  _527
REMARK  209  A    between atoms: _536  and  _538
REMARK  210  A    between atoms: _538  and  _539
REMARK  211  A    between atoms: _538  and  _541
REMARK  212  A    between atoms: _541  and  _542
REMARK  213  A    between atoms: _545  and  _547
REMARK  214  A    between atoms: _547  and  _548
REMARK  215  A    between atoms: _551  and  _553
REMARK  216  A    between atoms: _553  and  _554
REMARK  217  A    between atoms: _553  and  _556
REMARK  218  A    between atoms: _558  and  _560
REMARK  219  A    between atoms: _560  and  _561
REMARK  220  A    between atoms: _564  and  _566
REMARK  221  A    between atoms: _566  and  _567
REMARK  222  A    between atoms: _566  and  _569
REMARK  223  A    between atoms: _569  and  _570
REMARK  224  A    between atoms: _570  and  _571
REMARK                            x       y       z     vdW  Elec       q    Type
REMARK                         _______ _______ _______ _____ _____    ______ ____
ROOT
ATOM      1  O   HOH     1      23.070  52.483   4.658  0.00  0.00    +0.000 OA
ENDROOT
TORSDOF 0
REMARK  Name = ../refined-set-2016/4b6p/4b6p_pocket.pdb
REMARK  224 active torsions:
REMARK  status: ('A' for Active; 'I' for Inactive)
REMARK    1  A    between atoms: _1  and  _3
REMARK    2  A    between atoms: _3  and  _4
REMARK    3  A    between atoms: _3  and  _6
REMARK    4  A    between atoms: _6  and  _7
REMARK    5  A    between atoms: _12  and  _14
REMARK    6  A    between atoms: _14  and  _15
REMARK    7  A    between atoms: _18  and  _19
REMARK    8  A    between atoms: _24  and  _26
REMARK    9  A    between atoms: _26  and  _27
REMARK   10  A    between atoms: _26  and  _29
REMARK   11  A    between atoms: _29  and  _30
REMARK   12  A    between atoms: _35  and  _37
REMARK   13  A    between atoms: _37  and  _38
REMARK   14  A    between atoms: _37  and  _40
REMARK   15  A    between atoms: _40  and  _41
REMARK   16  A    between atoms: _44  and  _46
REMARK   17  A    between atoms: _46  and  _47
REMARK   18  A    between atoms: _49  and  _51
REMARK   19  A    between atoms: _51  and  _52
REMARK   20  A    between atoms: _51  and  _54
REMARK   21  A    between atoms: _54  and  _55
REMARK   22  A    between atoms: _55  and  _56
REMARK   23  A    between atoms: _56  and  _57
REMARK   24  A    between atoms: _66  and  _68
REMARK   25  A    between atoms: _68  and  _69
REMARK   26  A    between atoms: _68  and  _71
REMARK   27  A    between atoms: _71  and  _72
REMARK   28  A    between atoms: _75  and  _77
REMARK   29  A    between atoms: _77  and  _78
REMARK   30  A    between atoms: _80  and  _82
REMARK   31  A    between atoms: _82  and  _83
REMARK   32  A    between atoms: _82  and  _85
REMARK   33  A    between atoms: _85  and  _86
REMARK   34  A    between atoms: _86  and  _87
REMARK   35  A    between atoms: _87  and  _88
REMARK   36  A    between atoms: _97  and  _99
REMARK   37  A    between atoms: _99  and  _100
REMARK   38  A    between atoms: _99  and  _102
REMARK   39  A    between atoms: _102  and  _103
REMARK   40  A    between atoms: _103  and  _104
REMARK   41  A    between atoms: _104  and  _105
REMARK   42  A    between atoms: _114  and  _116
REMARK   43  A    between atoms: _116  and  _117
REMARK   44  A    between atoms: _116  and  _119
REMARK   45  A    between atoms: _119  and  _120
REMARK   46  A    between atoms: _120  and  _121
REMARK   47  A    between atoms: _124  and  _126
REMARK   48  A    between atoms: _126  and  _127
REMARK   49  A    between atoms: _126  and  _129
REMARK   50  A    between atoms: _132  and  _134
REMARK   51  A    between atoms: _134  and  _135
REMARK   52  A    between atoms: _134  and  _137
REMARK   53  A    between atoms: _137  and  _138
REMARK   54  A    between atoms: _143  and  _144
REMARK   55  A    between atoms: _146  and  _148
REMARK   56  A    between atoms: _148  and  _149
REMARK   57  A    between atoms: _151  and  _153
REMARK   58  A    between atoms: _153  and  _154
REMARK   59  A    between atoms: _153  and  _156
REMARK   60  A    between atoms: _156  and  _157
REMARK   61  A    between atoms: _160  and  _162
REMARK   62  A    between atoms: _162  and  _163
REMARK   63  A    between atoms: _162  and  _165
REMARK   64  A    between atoms: _165  and  _166
REMARK   65  A    between atoms: _171  and  _173
REMARK   66  A    between atoms: _173  and  _174
REMARK   67  A    between atoms: _173  and  _176
REMARK   68  A    between atoms: _176  and  _177
REMARK   69  A    between atoms: _180  and  _182
REMARK   70  A    between atoms: _182  and  _183
REMARK   71  A    between atoms: _182  and  _185
REMARK   72  A    between atoms: _185  and  _186
REMARK   73  A    between atoms: _186  and  _187
REMARK   74  A    between atoms: _192  and  _194
REMARK   75  A    between atoms: _194  and  _195
REMARK   76  A    between atoms: _194  and  _197
REMARK   77  A    between atoms: _197  and  _198
REMARK   78  A    between atoms: _201  and  _203
REMARK   79  A    between atoms: _203  and  _204
REMARK   80  A    between atoms: _203  and  _206
REMARK   81  A    between atoms: _206  and  _207
REMARK   82  A    between atoms: _210  and  _212
REMARK   83  A    between atoms: _212  and  _213
REMARK   84  A    between atoms: _212  and  _215
REMARK   85  A    between atoms: _215  and  _216
REMARK   86  A    between atoms: _221  and  _223
REMARK   87  A    between atoms: _223  and  _224
REMARK   88  A    between atoms: _227  and  _229
REMARK   89  A    between atoms: _229  and  _230
REMARK   90  A    between atoms: _232  and  _234
REMARK   91  A    between atoms: _234  and  _235
REMARK   92  A    between atoms: _237  and  _239
REMARK   93  A    between atoms: _239  and  _240
REMARK   94  A    between atoms: _239  and  _242
REMARK   95  A    between atoms: _242  and  _243
REMARK   96  A    between atoms: _246  and  _248
REMARK   97  A    between atoms: _248  and  _249
REMARK   98  A    between atoms: _248  and  _251
REMARK   99  A    between atoms: _251  and  _252
REMARK  100  A    between atoms: _255  and  _257
REMARK  101  A    between atoms: _257  and  _258
REMARK  102  A    between atoms: _257  and  _260
REMARK  103  A    between atoms: _260  and  _261
REMARK  104  A    between atoms: _266  and  _268
REMARK  105  A    between atoms: _268  and  _269
REMARK  106  A    between atoms: _268  and  _271
REMARK  107  A    between atoms: _271  and  _272
REMARK  108  A    between atoms: _272  and  _273
REMARK  109  A    between atoms: _276  and  _278
REMARK  110  A    between atoms: _278  and  _279
REMARK  111  A    between atoms: _278  and  _281
REMARK  112  A    between atoms: _284  and  _286
REMARK  113  A    between atoms: _286  and  _287
REMARK  114  A    between atoms: _286  and  _289
REMARK  115  A    between atoms: _289  and  _290
REMARK  116  A    between atoms: _295  and  _297
REMARK  117  A    between atoms: _297  and  _298
REMARK  118  A    between atoms: _297  and  _300
REMARK  119  A    between atoms: _300  and  _301
REMARK  120  A    between atoms: _304  and  _306
REMARK  121  A    between atoms: _306  and  _307
REMARK  122  A    between atoms: _306  and  _309
REMARK  123  A    between atoms: _309  and  _310
REMARK  124  A    between atoms: _312  and  _314
REMARK  125  A    between atoms: _314  and  _315
REMARK  126  A    between atoms: _314  and  _317
REMARK  127  A    between atoms: _317  and  _318
REMARK  128  A    between atoms: _323  and  _325
REMARK  129  A    between atoms: _325  and  _326
REMARK  130  A    between atoms: _325  and  _328
REMARK  131  A    between atoms: _331  and  _333
REMARK  132  A    between atoms: _333  and  _334
REMARK  133  A    between atoms: _333  and  _336
REMARK  134  A    between atoms: _336  and  _337
REMARK  135  A    between atoms: _342  and  _344
REMARK  136  A    between atoms: _344  and  _345
REMARK  137  A    between atoms: _344  and  _347
REMARK  138  A    between atoms: _347  and  _348
REMARK  139  A    between atoms: _348  and  _349
REMARK  140  A    between atoms: _349  and  _350
REMARK  141  A    between atoms: _359  and  _361
REMARK  142  A    between atoms: _361  and  _362
REMARK  143  A    between atoms: _361  and  _364
REMARK  144  A    between atoms: _364  and  _365
REMARK  145  A    between atoms: _365  and  _366
REMARK  146  A    between atoms: _369  and  _371
REMARK  147  A    between atoms: _371  and  _372
REMARK  148  A    between atoms: _371  and  _374
REMARK  149  A    between atoms: _374  and  _375
REMARK  150  A    between atoms: _381  and  _383
REMARK  151  A    between atoms: _383  and  _384
REMARK  152  A    between atoms: _383  and  _386
REMARK  153  A    between atoms: _386  and  _387
REMARK  154  A    between atoms: _387  and  _388
REMARK  155  A    between atoms: _388  and  _389
REMARK  156  A    between atoms: _398  and  _400
REMARK  157  A    between atoms: _400  and  _401
REMARK  158  A    between atoms: _400  and  _403
REMARK  159  A    between atoms: _403  and  _404
REMARK  160  A    between atoms: _404  and  _405
REMARK  161  A    between atoms: _405  and  _406
REMARK  162  A    between atoms: _415  and  _417
REMARK  163  A    between atoms: _417  and  _418
REMARK  164  A    between atoms: _417  and  _420
REMARK  165  A    between atoms: _420  and  _421
REMARK  166  A    between atoms: _426  and  _428
REMARK  167  A    between atoms: _428  and  _429
REMARK  168  A    between atoms: _428  and  _431
REMARK  169  A    between atoms: _431  and  _432
REMARK  170  A    between atoms: _435  and  _437
REMARK  171  A    between atoms: _437  and  _438
REMARK  172  A    between atoms: _437  and  _440
REMARK  173  A    between atoms: _443  and  _445
REMARK  174  A    between atoms: _445  and  _446
REMARK  175  A    between atoms: _448  and  _450
REMARK  176  A    between atoms: _450  and  _451
REMARK  177  A    between atoms: _450  and  _453
REMARK  178  A    between atoms: _453  and  _454
REMARK  179  A    between atoms: _457  and  _459
REMARK  180  A    between atoms: _459  and  _460
REMARK  181  A    between atoms: _462  and  _464
REMARK  182  A    between atoms: _464  and  _465
REMARK  183  A    between atoms: _464  and  _467
REMARK  184  A    between atoms: _467  and  _468
REMARK  185  A    between atoms: _471  and  _473
REMARK  186  A    between atoms: _473  and  _474
REMARK  187  A    between atoms: _473  and  _476
REMARK  188  A    between atoms: _476  and  _477
REMARK  189  A    between atoms: _482  and  _483
REMARK  190  A    between atoms: _485  and  _487
REMARK  191  A    between atoms: _487  and  _488
REMARK  192  A    between atoms: _487  and  _490
REMARK  193  A    between atoms: _490  and  _491
REMARK  194  A    between atoms: _496  and  _498
REMARK  195  A    between atoms: _498  and  _499
REMARK  196  A    between atoms: _498  and  _501
REMARK  197  A    between atoms: _504  and  _506
REMARK  198  A    between atoms: _506  and  _507
REMARK  199  A    between atoms: _510  and  _512
REMARK  200  A    between atoms: _512  and  _513
REMARK  201  A    between atoms: _512  and  _515
REMARK  202  A    between atoms: _515  and  _516
REMARK  203  A    between atoms: _519  and  _521
REMARK  204  A    between atoms: _521  and  _522
REMARK  205  A    between atoms: _521  and  _524
REMARK  206  A    between atoms: _524  and  _525
REMARK  207  A    between atoms: _525  and  _526
REMARK  208  A    between atoms: _526  and  _527
REMARK  209  A    between atoms: _536  and  _538
REMARK  210  A    between atoms: _538  and  _539
REMARK  211  A    between atoms: _538  and  _541
REMARK  212  A    between atoms: _541  and  _542
REMARK  213  A    between atoms: _545  and  _547
REMARK  214  A    between atoms: _547  and  _548
REMARK  215  A    between atoms: _551  and  _553
REMARK  216  A    between atoms: _553  and  _554
REMARK  217  A    between atoms: _553  and  _556
REMARK  218  A    between atoms: _558  and  _560
REMARK  219  A    between atoms: _560  and  _561
REMARK  220  A    between atoms: _564  and  _566
REMARK  221  A    between atoms: _566  and  _567
REMARK  222  A    between atoms: _566  and  _569
REMARK  223  A    between atoms: _569  and  _570
REMARK  224  A    between atoms: _570  and  _571
REMARK                            x       y       z     vdW  Elec       q    Type
REMARK                         _______ _______ _______ _____ _____    ______ ____
ROOT
ATOM      1  O   HOH     1      27.172  53.641  -1.445  0.00  0.00    +0.000 OA
ENDROOT
TORSDOF 0
REMARK  Name = ../refined-set-2016/4b6p/4b6p_pocket.pdb
REMARK  224 active torsions:
REMARK  status: ('A' for Active; 'I' for Inactive)
REMARK    1  A    between atoms: _1  and  _3
REMARK    2  A    between atoms: _3  and  _4
REMARK    3  A    between atoms: _3  and  _6
REMARK    4  A    between atoms: _6  and  _7
REMARK    5  A    between atoms: _12  and  _14
REMARK    6  A    between atoms: _14  and  _15
REMARK    7  A    between atoms: _18  and  _19
REMARK    8  A    between atoms: _24  and  _26
REMARK    9  A    between atoms: _26  and  _27
REMARK   10  A    between atoms: _26  and  _29
REMARK   11  A    between atoms: _29  and  _30
REMARK   12  A    between atoms: _35  and  _37
REMARK   13  A    between atoms: _37  and  _38
REMARK   14  A    between atoms: _37  and  _40
REMARK   15  A    between atoms: _40  and  _41
REMARK   16  A    between atoms: _44  and  _46
REMARK   17  A    between atoms: _46  and  _47
REMARK   18  A    between atoms: _49  and  _51
REMARK   19  A    between atoms: _51  and  _52
REMARK   20  A    between atoms: _51  and  _54
REMARK   21  A    between atoms: _54  and  _55
REMARK   22  A    between atoms: _55  and  _56
REMARK   23  A    between atoms: _56  and  _57
REMARK   24  A    between atoms: _66  and  _68
REMARK   25  A    between atoms: _68  and  _69
REMARK   26  A    between atoms: _68  and  _71
REMARK   27  A    between atoms: _71  and  _72
REMARK   28  A    between atoms: _75  and  _77
REMARK   29  A    between atoms: _77  and  _78
REMARK   30  A    between atoms: _80  and  _82
REMARK   31  A    between atoms: _82  and  _83
REMARK   32  A    between atoms: _82  and  _85
REMARK   33  A    between atoms: _85  and  _86
REMARK   34  A    between atoms: _86  and  _87
REMARK   35  A    between atoms: _87  and  _88
REMARK   36  A    between atoms: _97  and  _99
REMARK   37  A    between atoms: _99  and  _100
REMARK   38  A    between atoms: _99  and  _102
REMARK   39  A    between atoms: _102  and  _103
REMARK   40  A    between atoms: _103  and  _104
REMARK   41  A    between atoms: _104  and  _105
REMARK   42  A    between atoms: _114  and  _116
REMARK   43  A    between atoms: _116  and  _117
REMARK   44  A    between atoms: _116  and  _119
REMARK   45  A    between atoms: _119  and  _120
REMARK   46  A    between atoms: _120  and  _121
REMARK   47  A    between atoms: _124  and  _126
REMARK   48  A    between atoms: _126  and  _127
REMARK   49  A    between atoms: _126  and  _129
REMARK   50  A    between atoms: _132  and  _134
REMARK   51  A    between atoms: _134  and  _135
REMARK   52  A    between atoms: _134  and  _137
REMARK   53  A    between atoms: _137  and  _138
REMARK   54  A    between atoms: _143  and  _144
REMARK   55  A    between atoms: _146  and  _148
REMARK   56  A    between atoms: _148  and  _149
REMARK   57  A    between atoms: _151  and  _153
REMARK   58  A    between atoms: _153  and  _154
REMARK   59  A    between atoms: _153  and  _156
REMARK   60  A    between atoms: _156  and  _157
REMARK   61  A    between atoms: _160  and  _162
REMARK   62  A    between atoms: _162  and  _163
REMARK   63  A    between atoms: _162  and  _165
REMARK   64  A    between atoms: _165  and  _166
REMARK   65  A    between atoms: _171  and  _173
REMARK   66  A    between atoms: _173  and  _174
REMARK   67  A    between atoms: _173  and  _176
REMARK   68  A    between atoms: _176  and  _177
REMARK   69  A    between atoms: _180  and  _182
REMARK   70  A    between atoms: _182  and  _183
REMARK   71  A    between atoms: _182  and  _185
REMARK   72  A    between atoms: _185  and  _186
REMARK   73  A    between atoms: _186  and  _187
REMARK   74  A    between atoms: _192  and  _194
REMARK   75  A    between atoms: _194  and  _195
REMARK   76  A    between atoms: _194  and  _197
REMARK   77  A    between atoms: _197  and  _198
REMARK   78  A    between atoms: _201  and  _203
REMARK   79  A    between atoms: _203  and  _204
REMARK   80  A    between atoms: _203  and  _206
REMARK   81  A    between atoms: _206  and  _207
REMARK   82  A    between atoms: _210  and  _212
REMARK   83  A    between atoms: _212  and  _213
REMARK   84  A    between atoms: _212  and  _215
REMARK   85  A    between atoms: _215  and  _216
REMARK   86  A    between atoms: _221  and  _223
REMARK   87  A    between atoms: _223  and  _224
REMARK   88  A    between atoms: _227  and  _229
REMARK   89  A    between atoms: _229  and  _230
REMARK   90  A    between atoms: _232  and  _234
REMARK   91  A    between atoms: _234  and  _235
REMARK   92  A    between atoms: _237  and  _239
REMARK   93  A    between atoms: _239  and  _240
REMARK   94  A    between atoms: _239  and  _242
REMARK   95  A    between atoms: _242  and  _243
REMARK   96  A    between atoms: _246  and  _248
REMARK   97  A    between atoms: _248  and  _249
REMARK   98  A    between atoms: _248  and  _251
REMARK   99  A    between atoms: _251  and  _252
REMARK  100  A    between atoms: _255  and  _257
REMARK  101  A    between atoms: _257  and  _258
REMARK  102  A    between atoms: _257  and  _260
REMARK  103  A    between atoms: _260  and  _261
REMARK  104  A    between atoms: _266  and  _268
REMARK  105  A    between atoms: _268  and  _269
REMARK  106  A    between atoms: _268  and  _271
REMARK  107  A    between atoms: _271  and  _272
REMARK  108  A    between atoms: _272  and  _273
REMARK  109  A    between atoms: _276  and  _278
REMARK  110  A    between atoms: _278  and  _279
REMARK  111  A    between atoms: _278  and  _281
REMARK  112  A    between atoms: _284  and  _286
REMARK  113  A    between atoms: _286  and  _287
REMARK  114  A    between atoms: _286  and  _289
REMARK  115  A    between atoms: _289  and  _290
REMARK  116  A    between atoms: _295  and  _297
REMARK  117  A    between atoms: _297  and  _298
REMARK  118  A    between atoms: _297  and  _300
REMARK  119  A    between atoms: _300  and  _301
REMARK  120  A    between atoms: _304  and  _306
REMARK  121  A    between atoms: _306  and  _307
REMARK  122  A    between atoms: _306  and  _309
REMARK  123  A    between atoms: _309  and  _310
REMARK  124  A    between atoms: _312  and  _314
REMARK  125  A    between atoms: _314  and  _315
REMARK  126  A    between atoms: _314  and  _317
REMARK  127  A    between atoms: _317  and  _318
REMARK  128  A    between atoms: _323  and  _325
REMARK  129  A    between atoms: _325  and  _326
REMARK  130  A    between atoms: _325  and  _328
REMARK  131  A    between atoms: _331  and  _333
REMARK  132  A    between atoms: _333  and  _334
REMARK  133  A    between atoms: _333  and  _336
REMARK  134  A    between atoms: _336  and  _337
REMARK  135  A    between atoms: _342  and  _344
REMARK  136  A    between atoms: _344  and  _345
REMARK  137  A    between atoms: _344  and  _347
REMARK  138  A    between atoms: _347  and  _348
REMARK  139  A    between atoms: _348  and  _349
REMARK  140  A    between atoms: _349  and  _350
REMARK  141  A    between atoms: _359  and  _361
REMARK  142  A    between atoms: _361  and  _362
REMARK  143  A    between atoms: _361  and  _364
REMARK  144  A    between atoms: _364  and  _365
REMARK  145  A    between atoms: _365  and  _366
REMARK  146  A    between atoms: _369  and  _371
REMARK  147  A    between atoms: _371  and  _372
REMARK  148  A    between atoms: _371  and  _374
REMARK  149  A    between atoms: _374  and  _375
REMARK  150  A    between atoms: _381  and  _383
REMARK  151  A    between atoms: _383  and  _384
REMARK  152  A    between atoms: _383  and  _386
REMARK  153  A    between atoms: _386  and  _387
REMARK  154  A    between atoms: _387  and  _388
REMARK  155  A    between atoms: _388  and  _389
REMARK  156  A    between atoms: _398  and  _400
REMARK  157  A    between atoms: _400  and  _401
REMARK  158  A    between atoms: _400  and  _403
REMARK  159  A    between atoms: _403  and  _404
REMARK  160  A    between atoms: _404  and  _405
REMARK  161  A    between atoms: _405  and  _406
REMARK  162  A    between atoms: _415  and  _417
REMARK  163  A    between atoms: _417  and  _418
REMARK  164  A    between atoms: _417  and  _420
REMARK  165  A    between atoms: _420  and  _421
REMARK  166  A    between atoms: _426  and  _428
REMARK  167  A    between atoms: _428  and  _429
REMARK  168  A    between atoms: _428  and  _431
REMARK  169  A    between atoms: _431  and  _432
REMARK  170  A    between atoms: _435  and  _437
REMARK  171  A    between atoms: _437  and  _438
REMARK  172  A    between atoms: _437  and  _440
REMARK  173  A    between atoms: _443  and  _445
REMARK  174  A    between atoms: _445  and  _446
REMARK  175  A    between atoms: _448  and  _450
REMARK  176  A    between atoms: _450  and  _451
REMARK  177  A    between atoms: _450  and  _453
REMARK  178  A    between atoms: _453  and  _454
REMARK  179  A    between atoms: _457  and  _459
REMARK  180  A    between atoms: _459  and  _460
REMARK  181  A    between atoms: _462  and  _464
REMARK  182  A    between atoms: _464  and  _465
REMARK  183  A    between atoms: _464  and  _467
REMARK  184  A    between atoms: _467  and  _468
REMARK  185  A    between atoms: _471  and  _473
REMARK  186  A    between atoms: _473  and  _474
REMARK  187  A    between atoms: _473  and  _476
REMARK  188  A    between atoms: _476  and  _477
REMARK  189  A    between atoms: _482  and  _483
REMARK  190  A    between atoms: _485  and  _487
REMARK  191  A    between atoms: _487  and  _488
REMARK  192  A    between atoms: _487  and  _490
REMARK  193  A    between atoms: _490  and  _491
REMARK  194  A    between atoms: _496  and  _498
REMARK  195  A    between atoms: _498  and  _499
REMARK  196  A    between atoms: _498  and  _501
REMARK  197  A    between atoms: _504  and  _506
REMARK  198  A    between atoms: _506  and  _507
REMARK  199  A    between atoms: _510  and  _512
REMARK  200  A    between atoms: _512  and  _513
REMARK  201  A    between atoms: _512  and  _515
REMARK  202  A    between atoms: _515  and  _516
REMARK  203  A    between atoms: _519  and  _521
REMARK  204  A    between atoms: _521  and  _522
REMARK  205  A    between atoms: _521  and  _524
REMARK  206  A    between atoms: _524  and  _525
REMARK  207  A    between atoms: _525  and  _526
REMARK  208  A    between atoms: _526  and  _527
REMARK  209  A    between atoms: _536  and  _538
REMARK  210  A    between atoms: _538  and  _539
REMARK  211  A    between atoms: _538  and  _541
REMARK  212  A    between atoms: _541  and  _542
REMARK  213  A    between atoms: _545  and  _547
REMARK  214  A    between atoms: _547  and  _548
REMARK  215  A    between atoms: _551  and  _553
REMARK  216  A    between atoms: _553  and  _554
REMARK  217  A    between atoms: _553  and  _556
REMARK  218  A    between atoms: _558  and  _560
REMARK  219  A    between atoms: _560  and  _561
REMARK  220  A    between atoms: _564  and  _566
REMARK  221  A    between atoms: _566  and  _567
REMARK  222  A    between atoms: _566  and  _569
REMARK  223  A    between atoms: _569  and  _570
REMARK  224  A    between atoms: _570  and  _571
REMARK                            x       y       z     vdW  Elec       q    Type
REMARK                         _______ _______ _______ _____ _____    ______ ____
ROOT
ATOM      1  O   HOH     1      33.732  51.476   2.318  0.00  0.00    +0.000 OA
ENDROOT
TORSDOF 0
REMARK  Name = ../refined-set-2016/4b6p/4b6p_pocket.pdb
REMARK  224 active torsions:
REMARK  status: ('A' for Active; 'I' for Inactive)
REMARK    1  A    between atoms: _1  and  _3
REMARK    2  A    between atoms: _3  and  _4
REMARK    3  A    between atoms: _3  and  _6
REMARK    4  A    between atoms: _6  and  _7
REMARK    5  A    between atoms: _12  and  _14
REMARK    6  A    between atoms: _14  and  _15
REMARK    7  A    between atoms: _18  and  _19
REMARK    8  A    between atoms: _24  and  _26
REMARK    9  A    between atoms: _26  and  _27
REMARK   10  A    between atoms: _26  and  _29
REMARK   11  A    between atoms: _29  and  _30
REMARK   12  A    between atoms: _35  and  _37
REMARK   13  A    between atoms: _37  and  _38
REMARK   14  A    between atoms: _37  and  _40
REMARK   15  A    between atoms: _40  and  _41
REMARK   16  A    between atoms: _44  and  _46
REMARK   17  A    between atoms: _46  and  _47
REMARK   18  A    between atoms: _49  and  _51
REMARK   19  A    between atoms: _51  and  _52
REMARK   20  A    between atoms: _51  and  _54
REMARK   21  A    between atoms: _54  and  _55
REMARK   22  A    between atoms: _55  and  _56
REMARK   23  A    between atoms: _56  and  _57
REMARK   24  A    between atoms: _66  and  _68
REMARK   25  A    between atoms: _68  and  _69
REMARK   26  A    between atoms: _68  and  _71
REMARK   27  A    between atoms: _71  and  _72
REMARK   28  A    between atoms: _75  and  _77
REMARK   29  A    between atoms: _77  and  _78
REMARK   30  A    between atoms: _80  and  _82
REMARK   31  A    between atoms: _82  and  _83
REMARK   32  A    between atoms: _82  and  _85
REMARK   33  A    between atoms: _85  and  _86
REMARK   34  A    between atoms: _86  and  _87
REMARK   35  A    between atoms: _87  and  _88
REMARK   36  A    between atoms: _97  and  _99
REMARK   37  A    between atoms: _99  and  _100
REMARK   38  A    between atoms: _99  and  _102
REMARK   39  A    between atoms: _102  and  _103
REMARK   40  A    between atoms: _103  and  _104
REMARK   41  A    between atoms: _104  and  _105
REMARK   42  A    between atoms: _114  and  _116
REMARK   43  A    between atoms: _116  and  _117
REMARK   44  A    between atoms: _116  and  _119
REMARK   45  A    between atoms: _119  and  _120
REMARK   46  A    between atoms: _120  and  _121
REMARK   47  A    between atoms: _124  and  _126
REMARK   48  A    between atoms: _126  and  _127
REMARK   49  A    between atoms: _126  and  _129
REMARK   50  A    between atoms: _132  and  _134
REMARK   51  A    between atoms: _134  and  _135
REMARK   52  A    between atoms: _134  and  _137
REMARK   53  A    between atoms: _137  and  _138
REMARK   54  A    between atoms: _143  and  _144
REMARK   55  A    between atoms: _146  and  _148
REMARK   56  A    between atoms: _148  and  _149
REMARK   57  A    between atoms: _151  and  _153
REMARK   58  A    between atoms: _153  and  _154
REMARK   59  A    between atoms: _153  and  _156
REMARK   60  A    between atoms: _156  and  _157
REMARK   61  A    between atoms: _160  and  _162
REMARK   62  A    between atoms: _162  and  _163
REMARK   63  A    between atoms: _162  and  _165
REMARK   64  A    between atoms: _165  and  _166
REMARK   65  A    between atoms: _171  and  _173
REMARK   66  A    between atoms: _173  and  _174
REMARK   67  A    between atoms: _173  and  _176
REMARK   68  A    between atoms: _176  and  _177
REMARK   69  A    between atoms: _180  and  _182
REMARK   70  A    between atoms: _182  and  _183
REMARK   71  A    between atoms: _182  and  _185
REMARK   72  A    between atoms: _185  and  _186
REMARK   73  A    between atoms: _186  and  _187
REMARK   74  A    between atoms: _192  and  _194
REMARK   75  A    between atoms: _194  and  _195
REMARK   76  A    between atoms: _194  and  _197
REMARK   77  A    between atoms: _197  and  _198
REMARK   78  A    between atoms: _201  and  _203
REMARK   79  A    between atoms: _203  and  _204
REMARK   80  A    between atoms: _203  and  _206
REMARK   81  A    between atoms: _206  and  _207
REMARK   82  A    between atoms: _210  and  _212
REMARK   83  A    between atoms: _212  and  _213
REMARK   84  A    between atoms: _212  and  _215
REMARK   85  A    between atoms: _215  and  _216
REMARK   86  A    between atoms: _221  and  _223
REMARK   87  A    between atoms: _223  and  _224
REMARK   88  A    between atoms: _227  and  _229
REMARK   89  A    between atoms: _229  and  _230
REMARK   90  A    between atoms: _232  and  _234
REMARK   91  A    between atoms: _234  and  _235
REMARK   92  A    between atoms: _237  and  _239
REMARK   93  A    between atoms: _239  and  _240
REMARK   94  A    between atoms: _239  and  _242
REMARK   95  A    between atoms: _242  and  _243
REMARK   96  A    between atoms: _246  and  _248
REMARK   97  A    between atoms: _248  and  _249
REMARK   98  A    between atoms: _248  and  _251
REMARK   99  A    between atoms: _251  and  _252
REMARK  100  A    between atoms: _255  and  _257
REMARK  101  A    between atoms: _257  and  _258
REMARK  102  A    between atoms: _257  and  _260
REMARK  103  A    between atoms: _260  and  _261
REMARK  104  A    between atoms: _266  and  _268
REMARK  105  A    between atoms: _268  and  _269
REMARK  106  A    between atoms: _268  and  _271
REMARK  107  A    between atoms: _271  and  _272
REMARK  108  A    between atoms: _272  and  _273
REMARK  109  A    between atoms: _276  and  _278
REMARK  110  A    between atoms: _278  and  _279
REMARK  111  A    between atoms: _278  and  _281
REMARK  112  A    between atoms: _284  and  _286
REMARK  113  A    between atoms: _286  and  _287
REMARK  114  A    between atoms: _286  and  _289
REMARK  115  A    between atoms: _289  and  _290
REMARK  116  A    between atoms: _295  and  _297
REMARK  117  A    between atoms: _297  and  _298
REMARK  118  A    between atoms: _297  and  _300
REMARK  119  A    between atoms: _300  and  _301
REMARK  120  A    between atoms: _304  and  _306
REMARK  121  A    between atoms: _306  and  _307
REMARK  122  A    between atoms: _306  and  _309
REMARK  123  A    between atoms: _309  and  _310
REMARK  124  A    between atoms: _312  and  _314
REMARK  125  A    between atoms: _314  and  _315
REMARK  126  A    between atoms: _314  and  _317
REMARK  127  A    between atoms: _317  and  _318
REMARK  128  A    between atoms: _323  and  _325
REMARK  129  A    between atoms: _325  and  _326
REMARK  130  A    between atoms: _325  and  _328
REMARK  131  A    between atoms: _331  and  _333
REMARK  132  A    between atoms: _333  and  _334
REMARK  133  A    between atoms: _333  and  _336
REMARK  134  A    between atoms: _336  and  _337
REMARK  135  A    between atoms: _342  and  _344
REMARK  136  A    between atoms: _344  and  _345
REMARK  137  A    between atoms: _344  and  _347
REMARK  138  A    between atoms: _347  and  _348
REMARK  139  A    between atoms: _348  and  _349
REMARK  140  A    between atoms: _349  and  _350
REMARK  141  A    between atoms: _359  and  _361
REMARK  142  A    between atoms: _361  and  _362
REMARK  143  A    between atoms: _361  and  _364
REMARK  144  A    between atoms: _364  and  _365
REMARK  145  A    between atoms: _365  and  _366
REMARK  146  A    between atoms: _369  and  _371
REMARK  147  A    between atoms: _371  and  _372
REMARK  148  A    between atoms: _371  and  _374
REMARK  149  A    between atoms: _374  and  _375
REMARK  150  A    between atoms: _381  and  _383
REMARK  151  A    between atoms: _383  and  _384
REMARK  152  A    between atoms: _383  and  _386
REMARK  153  A    between atoms: _386  and  _387
REMARK  154  A    between atoms: _387  and  _388
REMARK  155  A    between atoms: _388  and  _389
REMARK  156  A    between atoms: _398  and  _400
REMARK  157  A    between atoms: _400  and  _401
REMARK  158  A    between atoms: _400  and  _403
REMARK  159  A    between atoms: _403  and  _404
REMARK  160  A    between atoms: _404  and  _405
REMARK  161  A    between atoms: _405  and  _406
REMARK  162  A    between atoms: _415  and  _417
REMARK  163  A    between atoms: _417  and  _418
REMARK  164  A    between atoms: _417  and  _420
REMARK  165  A    between atoms: _420  and  _421
REMARK  166  A    between atoms: _426  and  _428
REMARK  167  A    between atoms: _428  and  _429
REMARK  168  A    between atoms: _428  and  _431
REMARK  169  A    between atoms: _431  and  _432
REMARK  170  A    between atoms: _435  and  _437
REMARK  171  A    between atoms: _437  and  _438
REMARK  172  A    between atoms: _437  and  _440
REMARK  173  A    between atoms: _443  and  _445
REMARK  174  A    between atoms: _445  and  _446
REMARK  175  A    between atoms: _448  and  _450
REMARK  176  A    between atoms: _450  and  _451
REMARK  177  A    between atoms: _450  and  _453
REMARK  178  A    between atoms: _453  and  _454
REMARK  179  A    between atoms: _457  and  _459
REMARK  180  A    between atoms: _459  and  _460
REMARK  181  A    between atoms: _462  and  _464
REMARK  182  A    between atoms: _464  and  _465
REMARK  183  A    between atoms: _464  and  _467
REMARK  184  A    between atoms: _467  and  _468
REMARK  185  A    between atoms: _471  and  _473
REMARK  186  A    between atoms: _473  and  _474
REMARK  187  A    between atoms: _473  and  _476
REMARK  188  A    between atoms: _476  and  _477
REMARK  189  A    between atoms: _482  and  _483
REMARK  190  A    between atoms: _485  and  _487
REMARK  191  A    between atoms: _487  and  _488
REMARK  192  A    between atoms: _487  and  _490
REMARK  193  A    between atoms: _490  and  _491
REMARK  194  A    between atoms: _496  and  _498
REMARK  195  A    between atoms: _498  and  _499
REMARK  196  A    between atoms: _498  and  _501
REMARK  197  A    between atoms: _504  and  _506
REMARK  198  A    between atoms: _506  and  _507
REMARK  199  A    between atoms: _510  and  _512
REMARK  200  A    between atoms: _512  and  _513
REMARK  201  A    between atoms: _512  and  _515
REMARK  202  A    between atoms: _515  and  _516
REMARK  203  A    between atoms: _519  and  _521
REMARK  204  A    between atoms: _521  and  _522
REMARK  205  A    between atoms: _521  and  _524
REMARK  206  A    between atoms: _524  and  _525
REMARK  207  A    between atoms: _525  and  _526
REMARK  208  A    between atoms: _526  and  _527
REMARK  209  A    between atoms: _536  and  _538
REMARK  210  A    between atoms: _538  and  _539
REMARK  211  A    between atoms: _538  and  _541
REMARK  212  A    between atoms: _541  and  _542
REMARK  213  A    between atoms: _545  and  _547
REMARK  214  A    between atoms: _547  and  _548
REMARK  215  A    between atoms: _551  and  _553
REMARK  216  A    between atoms: _553  and  _554
REMARK  217  A    between atoms: _553  and  _556
REMARK  218  A    between atoms: _558  and  _560
REMARK  219  A    between atoms: _560  and  _561
REMARK  220  A    between atoms: _564  and  _566
REMARK  221  A    between atoms: _566  and  _567
REMARK  222  A    between atoms: _566  and  _569
REMARK  223  A    between atoms: _569  and  _570
REMARK  224  A    between atoms: _570  and  _571
REMARK                            x       y       z     vdW  Elec       q    Type
REMARK                         _______ _______ _______ _____ _____    ______ ____
ROOT
ATOM      1  O   HOH     1      23.838  38.319   6.447  0.00  0.00    +0.000 OA
ENDROOT
TORSDOF 0
REMARK  Name = ../refined-set-2016/4b6p/4b6p_pocket.pdb
REMARK  224 active torsions:
REMARK  status: ('A' for Active; 'I' for Inactive)
REMARK    1  A    between atoms: _1  and  _3
REMARK    2  A    between atoms: _3  and  _4
REMARK    3  A    between atoms: _3  and  _6
REMARK    4  A    between atoms: _6  and  _7
REMARK    5  A    between atoms: _12  and  _14
REMARK    6  A    between atoms: _14  and  _15
REMARK    7  A    between atoms: _18  and  _19
REMARK    8  A    between atoms: _24  and  _26
REMARK    9  A    between atoms: _26  and  _27
REMARK   10  A    between atoms: _26  and  _29
REMARK   11  A    between atoms: _29  and  _30
REMARK   12  A    between atoms: _35  and  _37
REMARK   13  A    between atoms: _37  and  _38
REMARK   14  A    between atoms: _37  and  _40
REMARK   15  A    between atoms: _40  and  _41
REMARK   16  A    between atoms: _44  and  _46
REMARK   17  A    between atoms: _46  and  _47
REMARK   18  A    between atoms: _49  and  _51
REMARK   19  A    between atoms: _51  and  _52
REMARK   20  A    between atoms: _51  and  _54
REMARK   21  A    between atoms: _54  and  _55
REMARK   22  A    between atoms: _55  and  _56
REMARK   23  A    between atoms: _56  and  _57
REMARK   24  A    between atoms: _66  and  _68
REMARK   25  A    between atoms: _68  and  _69
REMARK   26  A    between atoms: _68  and  _71
REMARK   27  A    between atoms: _71  and  _72
REMARK   28  A    between atoms: _75  and  _77
REMARK   29  A    between atoms: _77  and  _78
REMARK   30  A    between atoms: _80  and  _82
REMARK   31  A    between atoms: _82  and  _83
REMARK   32  A    between atoms: _82  and  _85
REMARK   33  A    between atoms: _85  and  _86
REMARK   34  A    between atoms: _86  and  _87
REMARK   35  A    between atoms: _87  and  _88
REMARK   36  A    between atoms: _97  and  _99
REMARK   37  A    between atoms: _99  and  _100
REMARK   38  A    between atoms: _99  and  _102
REMARK   39  A    between atoms: _102  and  _103
REMARK   40  A    between atoms: _103  and  _104
REMARK   41  A    between atoms: _104  and  _105
REMARK   42  A    between atoms: _114  and  _116
REMARK   43  A    between atoms: _116  and  _117
REMARK   44  A    between atoms: _116  and  _119
REMARK   45  A    between atoms: _119  and  _120
REMARK   46  A    between atoms: _120  and  _121
REMARK   47  A    between atoms: _124  and  _126
REMARK   48  A    between atoms: _126  and  _127
REMARK   49  A    between atoms: _126  and  _129
REMARK   50  A    between atoms: _132  and  _134
REMARK   51  A    between atoms: _134  and  _135
REMARK   52  A    between atoms: _134  and  _137
REMARK   53  A    between atoms: _137  and  _138
REMARK   54  A    between atoms: _143  and  _144
REMARK   55  A    between atoms: _146  and  _148
REMARK   56  A    between atoms: _148  and  _149
REMARK   57  A    between atoms: _151  and  _153
REMARK   58  A    between atoms: _153  and  _154
REMARK   59  A    between atoms: _153  and  _156
REMARK   60  A    between atoms: _156  and  _157
REMARK   61  A    between atoms: _160  and  _162
REMARK   62  A    between atoms: _162  and  _163
REMARK   63  A    between atoms: _162  and  _165
REMARK   64  A    between atoms: _165  and  _166
REMARK   65  A    between atoms: _171  and  _173
REMARK   66  A    between atoms: _173  and  _174
REMARK   67  A    between atoms: _173  and  _176
REMARK   68  A    between atoms: _176  and  _177
REMARK   69  A    between atoms: _180  and  _182
REMARK   70  A    between atoms: _182  and  _183
REMARK   71  A    between atoms: _182  and  _185
REMARK   72  A    between atoms: _185  and  _186
REMARK   73  A    between atoms: _186  and  _187
REMARK   74  A    between atoms: _192  and  _194
REMARK   75  A    between atoms: _194  and  _195
REMARK   76  A    between atoms: _194  and  _197
REMARK   77  A    between atoms: _197  and  _198
REMARK   78  A    between atoms: _201  and  _203
REMARK   79  A    between atoms: _203  and  _204
REMARK   80  A    between atoms: _203  and  _206
REMARK   81  A    between atoms: _206  and  _207
REMARK   82  A    between atoms: _210  and  _212
REMARK   83  A    between atoms: _212  and  _213
REMARK   84  A    between atoms: _212  and  _215
REMARK   85  A    between atoms: _215  and  _216
REMARK   86  A    between atoms: _221  and  _223
REMARK   87  A    between atoms: _223  and  _224
REMARK   88  A    between atoms: _227  and  _229
REMARK   89  A    between atoms: _229  and  _230
REMARK   90  A    between atoms: _232  and  _234
REMARK   91  A    between atoms: _234  and  _235
REMARK   92  A    between atoms: _237  and  _239
REMARK   93  A    between atoms: _239  and  _240
REMARK   94  A    between atoms: _239  and  _242
REMARK   95  A    between atoms: _242  and  _243
REMARK   96  A    between atoms: _246  and  _248
REMARK   97  A    between atoms: _248  and  _249
REMARK   98  A    between atoms: _248  and  _251
REMARK   99  A    between atoms: _251  and  _252
REMARK  100  A    between atoms: _255  and  _257
REMARK  101  A    between atoms: _257  and  _258
REMARK  102  A    between atoms: _257  and  _260
REMARK  103  A    between atoms: _260  and  _261
REMARK  104  A    between atoms: _266  and  _268
REMARK  105  A    between atoms: _268  and  _269
REMARK  106  A    between atoms: _268  and  _271
REMARK  107  A    between atoms: _271  and  _272
REMARK  108  A    between atoms: _272  and  _273
REMARK  109  A    between atoms: _276  and  _278
REMARK  110  A    between atoms: _278  and  _279
REMARK  111  A    between atoms: _278  and  _281
REMARK  112  A    between atoms: _284  and  _286
REMARK  113  A    between atoms: _286  and  _287
REMARK  114  A    between atoms: _286  and  _289
REMARK  115  A    between atoms: _289  and  _290
REMARK  116  A    between atoms: _295  and  _297
REMARK  117  A    between atoms: _297  and  _298
REMARK  118  A    between atoms: _297  and  _300
REMARK  119  A    between atoms: _300  and  _301
REMARK  120  A    between atoms: _304  and  _306
REMARK  121  A    between atoms: _306  and  _307
REMARK  122  A    between atoms: _306  and  _309
REMARK  123  A    between atoms: _309  and  _310
REMARK  124  A    between atoms: _312  and  _314
REMARK  125  A    between atoms: _314  and  _315
REMARK  126  A    between atoms: _314  and  _317
REMARK  127  A    between atoms: _317  and  _318
REMARK  128  A    between atoms: _323  and  _325
REMARK  129  A    between atoms: _325  and  _326
REMARK  130  A    between atoms: _325  and  _328
REMARK  131  A    between atoms: _331  and  _333
REMARK  132  A    between atoms: _333  and  _334
REMARK  133  A    between atoms: _333  and  _336
REMARK  134  A    between atoms: _336  and  _337
REMARK  135  A    between atoms: _342  and  _344
REMARK  136  A    between atoms: _344  and  _345
REMARK  137  A    between atoms: _344  and  _347
REMARK  138  A    between atoms: _347  and  _348
REMARK  139  A    between atoms: _348  and  _349
REMARK  140  A    between atoms: _349  and  _350
REMARK  141  A    between atoms: _359  and  _361
REMARK  142  A    between atoms: _361  and  _362
REMARK  143  A    between atoms: _361  and  _364
REMARK  144  A    between atoms: _364  and  _365
REMARK  145  A    between atoms: _365  and  _366
REMARK  146  A    between atoms: _369  and  _371
REMARK  147  A    between atoms: _371  and  _372
REMARK  148  A    between atoms: _371  and  _374
REMARK  149  A    between atoms: _374  and  _375
REMARK  150  A    between atoms: _381  and  _383
REMARK  151  A    between atoms: _383  and  _384
REMARK  152  A    between atoms: _383  and  _386
REMARK  153  A    between atoms: _386  and  _387
REMARK  154  A    between atoms: _387  and  _388
REMARK  155  A    between atoms: _388  and  _389
REMARK  156  A    between atoms: _398  and  _400
REMARK  157  A    between atoms: _400  and  _401
REMARK  158  A    between atoms: _400  and  _403
REMARK  159  A    between atoms: _403  and  _404
REMARK  160  A    between atoms: _404  and  _405
REMARK  161  A    between atoms: _405  and  _406
REMARK  162  A    between atoms: _415  and  _417
REMARK  163  A    between atoms: _417  and  _418
REMARK  164  A    between atoms: _417  and  _420
REMARK  165  A    between atoms: _420  and  _421
REMARK  166  A    between atoms: _426  and  _428
REMARK  167  A    between atoms: _428  and  _429
REMARK  168  A    between atoms: _428  and  _431
REMARK  169  A    between atoms: _431  and  _432
REMARK  170  A    between atoms: _435  and  _437
REMARK  171  A    between atoms: _437  and  _438
REMARK  172  A    between atoms: _437  and  _440
REMARK  173  A    between atoms: _443  and  _445
REMARK  174  A    between atoms: _445  and  _446
REMARK  175  A    between atoms: _448  and  _450
REMARK  176  A    between atoms: _450  and  _451
REMARK  177  A    between atoms: _450  and  _453
REMARK  178  A    between atoms: _453  and  _454
REMARK  179  A    between atoms: _457  and  _459
REMARK  180  A    between atoms: _459  and  _460
REMARK  181  A    between atoms: _462  and  _464
REMARK  182  A    between atoms: _464  and  _465
REMARK  183  A    between atoms: _464  and  _467
REMARK  184  A    between atoms: _467  and  _468
REMARK  185  A    between atoms: _471  and  _473
REMARK  186  A    between atoms: _473  and  _474
REMARK  187  A    between atoms: _473  and  _476
REMARK  188  A    between atoms: _476  and  _477
REMARK  189  A    between atoms: _482  and  _483
REMARK  190  A    between atoms: _485  and  _487
REMARK  191  A    between atoms: _487  and  _488
REMARK  192  A    between atoms: _487  and  _490
REMARK  193  A    between atoms: _490  and  _491
REMARK  194  A    between atoms: _496  and  _498
REMARK  195  A    between atoms: _498  and  _499
REMARK  196  A    between atoms: _498  and  _501
REMARK  197  A    between atoms: _504  and  _506
REMARK  198  A    between atoms: _506  and  _507
REMARK  199  A    between atoms: _510  and  _512
REMARK  200  A    between atoms: _512  and  _513
REMARK  201  A    between atoms: _512  and  _515
REMARK  202  A    between atoms: _515  and  _516
REMARK  203  A    between atoms: _519  and  _521
REMARK  204  A    between atoms: _521  and  _522
REMARK  205  A    between atoms: _521  and  _524
REMARK  206  A    between atoms: _524  and  _525
REMARK  207  A    between atoms: _525  and  _526
REMARK  208  A    between atoms: _526  and  _527
REMARK  209  A    between atoms: _536  and  _538
REMARK  210  A    between atoms: _538  and  _539
REMARK  211  A    between atoms: _538  and  _541
REMARK  212  A    between atoms: _541  and  _542
REMARK  213  A    between atoms: _545  and  _547
REMARK  214  A    between atoms: _547  and  _548
REMARK  215  A    between atoms: _551  and  _553
REMARK  216  A    between atoms: _553  and  _554
REMARK  217  A    between atoms: _553  and  _556
REMARK  218  A    between atoms: _558  and  _560
REMARK  219  A    between atoms: _560  and  _561
REMARK  220  A    between atoms: _564  and  _566
REMARK  221  A    between atoms: _566  and  _567
REMARK  222  A    between atoms: _566  and  _569
REMARK  223  A    between atoms: _569  and  _570
REMARK  224  A    between atoms: _570  and  _571
REMARK                            x       y       z     vdW  Elec       q    Type
REMARK                         _______ _______ _______ _____ _____    ______ ____
ROOT
ATOM      1  O   HOH     1      28.532  35.391   9.384  0.00  0.00    +0.000 OA
ENDROOT
TORSDOF 0
REMARK  Name = ../refined-set-2016/4b6p/4b6p_pocket.pdb
REMARK  224 active torsions:
REMARK  status: ('A' for Active; 'I' for Inactive)
REMARK    1  A    between atoms: _1  and  _3
REMARK    2  A    between atoms: _3  and  _4
REMARK    3  A    between atoms: _3  and  _6
REMARK    4  A    between atoms: _6  and  _7
REMARK    5  A    between atoms: _12  and  _14
REMARK    6  A    between atoms: _14  and  _15
REMARK    7  A    between atoms: _18  and  _19
REMARK    8  A    between atoms: _24  and  _26
REMARK    9  A    between atoms: _26  and  _27
REMARK   10  A    between atoms: _26  and  _29
REMARK   11  A    between atoms: _29  and  _30
REMARK   12  A    between atoms: _35  and  _37
REMARK   13  A    between atoms: _37  and  _38
REMARK   14  A    between atoms: _37  and  _40
REMARK   15  A    between atoms: _40  and  _41
REMARK   16  A    between atoms: _44  and  _46
REMARK   17  A    between atoms: _46  and  _47
REMARK   18  A    between atoms: _49  and  _51
REMARK   19  A    between atoms: _51  and  _52
REMARK   20  A    between atoms: _51  and  _54
REMARK   21  A    between atoms: _54  and  _55
REMARK   22  A    between atoms: _55  and  _56
REMARK   23  A    between atoms: _56  and  _57
REMARK   24  A    between atoms: _66  and  _68
REMARK   25  A    between atoms: _68  and  _69
REMARK   26  A    between atoms: _68  and  _71
REMARK   27  A    between atoms: _71  and  _72
REMARK   28  A    between atoms: _75  and  _77
REMARK   29  A    between atoms: _77  and  _78
REMARK   30  A    between atoms: _80  and  _82
REMARK   31  A    between atoms: _82  and  _83
REMARK   32  A    between atoms: _82  and  _85
REMARK   33  A    between atoms: _85  and  _86
REMARK   34  A    between atoms: _86  and  _87
REMARK   35  A    between atoms: _87  and  _88
REMARK   36  A    between atoms: _97  and  _99
REMARK   37  A    between atoms: _99  and  _100
REMARK   38  A    between atoms: _99  and  _102
REMARK   39  A    between atoms: _102  and  _103
REMARK   40  A    between atoms: _103  and  _104
REMARK   41  A    between atoms: _104  and  _105
REMARK   42  A    between atoms: _114  and  _116
REMARK   43  A    between atoms: _116  and  _117
REMARK   44  A    between atoms: _116  and  _119
REMARK   45  A    between atoms: _119  and  _120
REMARK   46  A    between atoms: _120  and  _121
REMARK   47  A    between atoms: _124  and  _126
REMARK   48  A    between atoms: _126  and  _127
REMARK   49  A    between atoms: _126  and  _129
REMARK   50  A    between atoms: _132  and  _134
REMARK   51  A    between atoms: _134  and  _135
REMARK   52  A    between atoms: _134  and  _137
REMARK   53  A    between atoms: _137  and  _138
REMARK   54  A    between atoms: _143  and  _144
REMARK   55  A    between atoms: _146  and  _148
REMARK   56  A    between atoms: _148  and  _149
REMARK   57  A    between atoms: _151  and  _153
REMARK   58  A    between atoms: _153  and  _154
REMARK   59  A    between atoms: _153  and  _156
REMARK   60  A    between atoms: _156  and  _157
REMARK   61  A    between atoms: _160  and  _162
REMARK   62  A    between atoms: _162  and  _163
REMARK   63  A    between atoms: _162  and  _165
REMARK   64  A    between atoms: _165  and  _166
REMARK   65  A    between atoms: _171  and  _173
REMARK   66  A    between atoms: _173  and  _174
REMARK   67  A    between atoms: _173  and  _176
REMARK   68  A    between atoms: _176  and  _177
REMARK   69  A    between atoms: _180  and  _182
REMARK   70  A    between atoms: _182  and  _183
REMARK   71  A    between atoms: _182  and  _185
REMARK   72  A    between atoms: _185  and  _186
REMARK   73  A    between atoms: _186  and  _187
REMARK   74  A    between atoms: _192  and  _194
REMARK   75  A    between atoms: _194  and  _195
REMARK   76  A    between atoms: _194  and  _197
REMARK   77  A    between atoms: _197  and  _198
REMARK   78  A    between atoms: _201  and  _203
REMARK   79  A    between atoms: _203  and  _204
REMARK   80  A    between atoms: _203  and  _206
REMARK   81  A    between atoms: _206  and  _207
REMARK   82  A    between atoms: _210  and  _212
REMARK   83  A    between atoms: _212  and  _213
REMARK   84  A    between atoms: _212  and  _215
REMARK   85  A    between atoms: _215  and  _216
REMARK   86  A    between atoms: _221  and  _223
REMARK   87  A    between atoms: _223  and  _224
REMARK   88  A    between atoms: _227  and  _229
REMARK   89  A    between atoms: _229  and  _230
REMARK   90  A    between atoms: _232  and  _234
REMARK   91  A    between atoms: _234  and  _235
REMARK   92  A    between atoms: _237  and  _239
REMARK   93  A    between atoms: _239  and  _240
REMARK   94  A    between atoms: _239  and  _242
REMARK   95  A    between atoms: _242  and  _243
REMARK   96  A    between atoms: _246  and  _248
REMARK   97  A    between atoms: _248  and  _249
REMARK   98  A    between atoms: _248  and  _251
REMARK   99  A    between atoms: _251  and  _252
REMARK  100  A    between atoms: _255  and  _257
REMARK  101  A    between atoms: _257  and  _258
REMARK  102  A    between atoms: _257  and  _260
REMARK  103  A    between atoms: _260  and  _261
REMARK  104  A    between atoms: _266  and  _268
REMARK  105  A    between atoms: _268  and  _269
REMARK  106  A    between atoms: _268  and  _271
REMARK  107  A    between atoms: _271  and  _272
REMARK  108  A    between atoms: _272  and  _273
REMARK  109  A    between atoms: _276  and  _278
REMARK  110  A    between atoms: _278  and  _279
REMARK  111  A    between atoms: _278  and  _281
REMARK  112  A    between atoms: _284  and  _286
REMARK  113  A    between atoms: _286  and  _287
REMARK  114  A    between atoms: _286  and  _289
REMARK  115  A    between atoms: _289  and  _290
REMARK  116  A    between atoms: _295  and  _297
REMARK  117  A    between atoms: _297  and  _298
REMARK  118  A    between atoms: _297  and  _300
REMARK  119  A    between atoms: _300  and  _301
REMARK  120  A    between atoms: _304  and  _306
REMARK  121  A    between atoms: _306  and  _307
REMARK  122  A    between atoms: _306  and  _309
REMARK  123  A    between atoms: _309  and  _310
REMARK  124  A    between atoms: _312  and  _314
REMARK  125  A    between atoms: _314  and  _315
REMARK  126  A    between atoms: _314  and  _317
REMARK  127  A    between atoms: _317  and  _318
REMARK  128  A    between atoms: _323  and  _325
REMARK  129  A    between atoms: _325  and  _326
REMARK  130  A    between atoms: _325  and  _328
REMARK  131  A    between atoms: _331  and  _333
REMARK  132  A    between atoms: _333  and  _334
REMARK  133  A    between atoms: _333  and  _336
REMARK  134  A    between atoms: _336  and  _337
REMARK  135  A    between atoms: _342  and  _344
REMARK  136  A    between atoms: _344  and  _345
REMARK  137  A    between atoms: _344  and  _347
REMARK  138  A    between atoms: _347  and  _348
REMARK  139  A    between atoms: _348  and  _349
REMARK  140  A    between atoms: _349  and  _350
REMARK  141  A    between atoms: _359  and  _361
REMARK  142  A    between atoms: _361  and  _362
REMARK  143  A    between atoms: _361  and  _364
REMARK  144  A    between atoms: _364  and  _365
REMARK  145  A    between atoms: _365  and  _366
REMARK  146  A    between atoms: _369  and  _371
REMARK  147  A    between atoms: _371  and  _372
REMARK  148  A    between atoms: _371  and  _374
REMARK  149  A    between atoms: _374  and  _375
REMARK  150  A    between atoms: _381  and  _383
REMARK  151  A    between atoms: _383  and  _384
REMARK  152  A    between atoms: _383  and  _386
REMARK  153  A    between atoms: _386  and  _387
REMARK  154  A    between atoms: _387  and  _388
REMARK  155  A    between atoms: _388  and  _389
REMARK  156  A    between atoms: _398  and  _400
REMARK  157  A    between atoms: _400  and  _401
REMARK  158  A    between atoms: _400  and  _403
REMARK  159  A    between atoms: _403  and  _404
REMARK  160  A    between atoms: _404  and  _405
REMARK  161  A    between atoms: _405  and  _406
REMARK  162  A    between atoms: _415  and  _417
REMARK  163  A    between atoms: _417  and  _418
REMARK  164  A    between atoms: _417  and  _420
REMARK  165  A    between atoms: _420  and  _421
REMARK  166  A    between atoms: _426  and  _428
REMARK  167  A    between atoms: _428  and  _429
REMARK  168  A    between atoms: _428  and  _431
REMARK  169  A    between atoms: _431  and  _432
REMARK  170  A    between atoms: _435  and  _437
REMARK  171  A    between atoms: _437  and  _438
REMARK  172  A    between atoms: _437  and  _440
REMARK  173  A    between atoms: _443  and  _445
REMARK  174  A    between atoms: _445  and  _446
REMARK  175  A    between atoms: _448  and  _450
REMARK  176  A    between atoms: _450  and  _451
REMARK  177  A    between atoms: _450  and  _453
REMARK  178  A    between atoms: _453  and  _454
REMARK  179  A    between atoms: _457  and  _459
REMARK  180  A    between atoms: _459  and  _460
REMARK  181  A    between atoms: _462  and  _464
REMARK  182  A    between atoms: _464  and  _465
REMARK  183  A    between atoms: _464  and  _467
REMARK  184  A    between atoms: _467  and  _468
REMARK  185  A    between atoms: _471  and  _473
REMARK  186  A    between atoms: _473  and  _474
REMARK  187  A    between atoms: _473  and  _476
REMARK  188  A    between atoms: _476  and  _477
REMARK  189  A    between atoms: _482  and  _483
REMARK  190  A    between atoms: _485  and  _487
REMARK  191  A    between atoms: _487  and  _488
REMARK  192  A    between atoms: _487  and  _490
REMARK  193  A    between atoms: _490  and  _491
REMARK  194  A    between atoms: _496  and  _498
REMARK  195  A    between atoms: _498  and  _499
REMARK  196  A    between atoms: _498  and  _501
REMARK  197  A    between atoms: _504  and  _506
REMARK  198  A    between atoms: _506  and  _507
REMARK  199  A    between atoms: _510  and  _512
REMARK  200  A    between atoms: _512  and  _513
REMARK  201  A    between atoms: _512  and  _515
REMARK  202  A    between atoms: _515  and  _516
REMARK  203  A    between atoms: _519  and  _521
REMARK  204  A    between atoms: _521  and  _522
REMARK  205  A    between atoms: _521  and  _524
REMARK  206  A    between atoms: _524  and  _525
REMARK  207  A    between atoms: _525  and  _526
REMARK  208  A    between atoms: _526  and  _527
REMARK  209  A    between atoms: _536  and  _538
REMARK  210  A    between atoms: _538  and  _539
REMARK  211  A    between atoms: _538  and  _541
REMARK  212  A    between atoms: _541  and  _542
REMARK  213  A    between atoms: _545  and  _547
REMARK  214  A    between atoms: _547  and  _548
REMARK  215  A    between atoms: _551  and  _553
REMARK  216  A    between atoms: _553  and  _554
REMARK  217  A    between atoms: _553  and  _556
REMARK  218  A    between atoms: _558  and  _560
REMARK  219  A    between atoms: _560  and  _561
REMARK  220  A    between atoms: _564  and  _566
REMARK  221  A    between atoms: _566  and  _567
REMARK  222  A    between atoms: _566  and  _569
REMARK  223  A    between atoms: _569  and  _570
REMARK  224  A    between atoms: _570  and  _571
REMARK                            x       y       z     vdW  Elec       q    Type
REMARK                         _______ _______ _______ _____ _____    ______ ____
ROOT
ATOM      1  O   HOH     1      32.292  38.109   0.438  0.00  0.00    +0.000 OA
ENDROOT
TORSDOF 0
REMARK  Name = ../refined-set-2016/4b6p/4b6p_pocket.pdb
REMARK  224 active torsions:
REMARK  status: ('A' for Active; 'I' for Inactive)
REMARK    1  A    between atoms: _1  and  _3
REMARK    2  A    between atoms: _3  and  _4
REMARK    3  A    between atoms: _3  and  _6
REMARK    4  A    between atoms: _6  and  _7
REMARK    5  A    between atoms: _12  and  _14
REMARK    6  A    between atoms: _14  and  _15
REMARK    7  A    between atoms: _18  and  _19
REMARK    8  A    between atoms: _24  and  _26
REMARK    9  A    between atoms: _26  and  _27
REMARK   10  A    between atoms: _26  and  _29
REMARK   11  A    between atoms: _29  and  _30
REMARK   12  A    between atoms: _35  and  _37
REMARK   13  A    between atoms: _37  and  _38
REMARK   14  A    between atoms: _37  and  _40
REMARK   15  A    between atoms: _40  and  _41
REMARK   16  A    between atoms: _44  and  _46
REMARK   17  A    between atoms: _46  and  _47
REMARK   18  A    between atoms: _49  and  _51
REMARK   19  A    between atoms: _51  and  _52
REMARK   20  A    between atoms: _51  and  _54
REMARK   21  A    between atoms: _54  and  _55
REMARK   22  A    between atoms: _55  and  _56
REMARK   23  A    between atoms: _56  and  _57
REMARK   24  A    between atoms: _66  and  _68
REMARK   25  A    between atoms: _68  and  _69
REMARK   26  A    between atoms: _68  and  _71
REMARK   27  A    between atoms: _71  and  _72
REMARK   28  A    between atoms: _75  and  _77
REMARK   29  A    between atoms: _77  and  _78
REMARK   30  A    between atoms: _80  and  _82
REMARK   31  A    between atoms: _82  and  _83
REMARK   32  A    between atoms: _82  and  _85
REMARK   33  A    between atoms: _85  and  _86
REMARK   34  A    between atoms: _86  and  _87
REMARK   35  A    between atoms: _87  and  _88
REMARK   36  A    between atoms: _97  and  _99
REMARK   37  A    between atoms: _99  and  _100
REMARK   38  A    between atoms: _99  and  _102
REMARK   39  A    between atoms: _102  and  _103
REMARK   40  A    between atoms: _103  and  _104
REMARK   41  A    between atoms: _104  and  _105
REMARK   42  A    between atoms: _114  and  _116
REMARK   43  A    between atoms: _116  and  _117
REMARK   44  A    between atoms: _116  and  _119
REMARK   45  A    between atoms: _119  and  _120
REMARK   46  A    between atoms: _120  and  _121
REMARK   47  A    between atoms: _124  and  _126
REMARK   48  A    between atoms: _126  and  _127
REMARK   49  A    between atoms: _126  and  _129
REMARK   50  A    between atoms: _132  and  _134
REMARK   51  A    between atoms: _134  and  _135
REMARK   52  A    between atoms: _134  and  _137
REMARK   53  A    between atoms: _137  and  _138
REMARK   54  A    between atoms: _143  and  _144
REMARK   55  A    between atoms: _146  and  _148
REMARK   56  A    between atoms: _148  and  _149
REMARK   57  A    between atoms: _151  and  _153
REMARK   58  A    between atoms: _153  and  _154
REMARK   59  A    between atoms: _153  and  _156
REMARK   60  A    between atoms: _156  and  _157
REMARK   61  A    between atoms: _160  and  _162
REMARK   62  A    between atoms: _162  and  _163
REMARK   63  A    between atoms: _162  and  _165
REMARK   64  A    between atoms: _165  and  _166
REMARK   65  A    between atoms: _171  and  _173
REMARK   66  A    between atoms: _173  and  _174
REMARK   67  A    between atoms: _173  and  _176
REMARK   68  A    between atoms: _176  and  _177
REMARK   69  A    between atoms: _180  and  _182
REMARK   70  A    between atoms: _182  and  _183
REMARK   71  A    between atoms: _182  and  _185
REMARK   72  A    between atoms: _185  and  _186
REMARK   73  A    between atoms: _186  and  _187
REMARK   74  A    between atoms: _192  and  _194
REMARK   75  A    between atoms: _194  and  _195
REMARK   76  A    between atoms: _194  and  _197
REMARK   77  A    between atoms: _197  and  _198
REMARK   78  A    between atoms: _201  and  _203
REMARK   79  A    between atoms: _203  and  _204
REMARK   80  A    between atoms: _203  and  _206
REMARK   81  A    between atoms: _206  and  _207
REMARK   82  A    between atoms: _210  and  _212
REMARK   83  A    between atoms: _212  and  _213
REMARK   84  A    between atoms: _212  and  _215
REMARK   85  A    between atoms: _215  and  _216
REMARK   86  A    between atoms: _221  and  _223
REMARK   87  A    between atoms: _223  and  _224
REMARK   88  A    between atoms: _227  and  _229
REMARK   89  A    between atoms: _229  and  _230
REMARK   90  A    between atoms: _232  and  _234
REMARK   91  A    between atoms: _234  and  _235
REMARK   92  A    between atoms: _237  and  _239
REMARK   93  A    between atoms: _239  and  _240
REMARK   94  A    between atoms: _239  and  _242
REMARK   95  A    between atoms: _242  and  _243
REMARK   96  A    between atoms: _246  and  _248
REMARK   97  A    between atoms: _248  and  _249
REMARK   98  A    between atoms: _248  and  _251
REMARK   99  A    between atoms: _251  and  _252
REMARK  100  A    between atoms: _255  and  _257
REMARK  101  A    between atoms: _257  and  _258
REMARK  102  A    between atoms: _257  and  _260
REMARK  103  A    between atoms: _260  and  _261
REMARK  104  A    between atoms: _266  and  _268
REMARK  105  A    between atoms: _268  and  _269
REMARK  106  A    between atoms: _268  and  _271
REMARK  107  A    between atoms: _271  and  _272
REMARK  108  A    between atoms: _272  and  _273
REMARK  109  A    between atoms: _276  and  _278
REMARK  110  A    between atoms: _278  and  _279
REMARK  111  A    between atoms: _278  and  _281
REMARK  112  A    between atoms: _284  and  _286
REMARK  113  A    between atoms: _286  and  _287
REMARK  114  A    between atoms: _286  and  _289
REMARK  115  A    between atoms: _289  and  _290
REMARK  116  A    between atoms: _295  and  _297
REMARK  117  A    between atoms: _297  and  _298
REMARK  118  A    between atoms: _297  and  _300
REMARK  119  A    between atoms: _300  and  _301
REMARK  120  A    between atoms: _304  and  _306
REMARK  121  A    between atoms: _306  and  _307
REMARK  122  A    between atoms: _306  and  _309
REMARK  123  A    between atoms: _309  and  _310
REMARK  124  A    between atoms: _312  and  _314
REMARK  125  A    between atoms: _314  and  _315
REMARK  126  A    between atoms: _314  and  _317
REMARK  127  A    between atoms: _317  and  _318
REMARK  128  A    between atoms: _323  and  _325
REMARK  129  A    between atoms: _325  and  _326
REMARK  130  A    between atoms: _325  and  _328
REMARK  131  A    between atoms: _331  and  _333
REMARK  132  A    between atoms: _333  and  _334
REMARK  133  A    between atoms: _333  and  _336
REMARK  134  A    between atoms: _336  and  _337
REMARK  135  A    between atoms: _342  and  _344
REMARK  136  A    between atoms: _344  and  _345
REMARK  137  A    between atoms: _344  and  _347
REMARK  138  A    between atoms: _347  and  _348
REMARK  139  A    between atoms: _348  and  _349
REMARK  140  A    between atoms: _349  and  _350
REMARK  141  A    between atoms: _359  and  _361
REMARK  142  A    between atoms: _361  and  _362
REMARK  143  A    between atoms: _361  and  _364
REMARK  144  A    between atoms: _364  and  _365
REMARK  145  A    between atoms: _365  and  _366
REMARK  146  A    between atoms: _369  and  _371
REMARK  147  A    between atoms: _371  and  _372
REMARK  148  A    between atoms: _371  and  _374
REMARK  149  A    between atoms: _374  and  _375
REMARK  150  A    between atoms: _381  and  _383
REMARK  151  A    between atoms: _383  and  _384
REMARK  152  A    between atoms: _383  and  _386
REMARK  153  A    between atoms: _386  and  _387
REMARK  154  A    between atoms: _387  and  _388
REMARK  155  A    between atoms: _388  and  _389
REMARK  156  A    between atoms: _398  and  _400
REMARK  157  A    between atoms: _400  and  _401
REMARK  158  A    between atoms: _400  and  _403
REMARK  159  A    between atoms: _403  and  _404
REMARK  160  A    between atoms: _404  and  _405
REMARK  161  A    between atoms: _405  and  _406
REMARK  162  A    between atoms: _415  and  _417
REMARK  163  A    between atoms: _417  and  _418
REMARK  164  A    between atoms: _417  and  _420
REMARK  165  A    between atoms: _420  and  _421
REMARK  166  A    between atoms: _426  and  _428
REMARK  167  A    between atoms: _428  and  _429
REMARK  168  A    between atoms: _428  and  _431
REMARK  169  A    between atoms: _431  and  _432
REMARK  170  A    between atoms: _435  and  _437
REMARK  171  A    between atoms: _437  and  _438
REMARK  172  A    between atoms: _437  and  _440
REMARK  173  A    between atoms: _443  and  _445
REMARK  174  A    between atoms: _445  and  _446
REMARK  175  A    between atoms: _448  and  _450
REMARK  176  A    between atoms: _450  and  _451
REMARK  177  A    between atoms: _450  and  _453
REMARK  178  A    between atoms: _453  and  _454
REMARK  179  A    between atoms: _457  and  _459
REMARK  180  A    between atoms: _459  and  _460
REMARK  181  A    between atoms: _462  and  _464
REMARK  182  A    between atoms: _464  and  _465
REMARK  183  A    between atoms: _464  and  _467
REMARK  184  A    between atoms: _467  and  _468
REMARK  185  A    between atoms: _471  and  _473
REMARK  186  A    between atoms: _473  and  _474
REMARK  187  A    between atoms: _473  and  _476
REMARK  188  A    between atoms: _476  and  _477
REMARK  189  A    between atoms: _482  and  _483
REMARK  190  A    between atoms: _485  and  _487
REMARK  191  A    between atoms: _487  and  _488
REMARK  192  A    between atoms: _487  and  _490
REMARK  193  A    between atoms: _490  and  _491
REMARK  194  A    between atoms: _496  and  _498
REMARK  195  A    between atoms: _498  and  _499
REMARK  196  A    between atoms: _498  and  _501
REMARK  197  A    between atoms: _504  and  _506
REMARK  198  A    between atoms: _506  and  _507
REMARK  199  A    between atoms: _510  and  _512
REMARK  200  A    between atoms: _512  and  _513
REMARK  201  A    between atoms: _512  and  _515
REMARK  202  A    between atoms: _515  and  _516
REMARK  203  A    between atoms: _519  and  _521
REMARK  204  A    between atoms: _521  and  _522
REMARK  205  A    between atoms: _521  and  _524
REMARK  206  A    between atoms: _524  and  _525
REMARK  207  A    between atoms: _525  and  _526
REMARK  208  A    between atoms: _526  and  _527
REMARK  209  A    between atoms: _536  and  _538
REMARK  210  A    between atoms: _538  and  _539
REMARK  211  A    between atoms: _538  and  _541
REMARK  212  A    between atoms: _541  and  _542
REMARK  213  A    between atoms: _545  and  _547
REMARK  214  A    between atoms: _547  and  _548
REMARK  215  A    between atoms: _551  and  _553
REMARK  216  A    between atoms: _553  and  _554
REMARK  217  A    between atoms: _553  and  _556
REMARK  218  A    between atoms: _558  and  _560
REMARK  219  A    between atoms: _560  and  _561
REMARK  220  A    between atoms: _564  and  _566
REMARK  221  A    between atoms: _566  and  _567
REMARK  222  A    between atoms: _566  and  _569
REMARK  223  A    between atoms: _569  and  _570
REMARK  224  A    between atoms: _570  and  _571
REMARK                            x       y       z     vdW  Elec       q    Type
REMARK                         _______ _______ _______ _____ _____    ______ ____
ROOT
ATOM      1  O   HOH     1      38.040  41.734   5.504  0.00  0.00    +0.000 OA
ENDROOT
TORSDOF 0
REMARK  Name = ../refined-set-2016/4b6p/4b6p_pocket.pdb
REMARK  224 active torsions:
REMARK  status: ('A' for Active; 'I' for Inactive)
REMARK    1  A    between atoms: _1  and  _3
REMARK    2  A    between atoms: _3  and  _4
REMARK    3  A    between atoms: _3  and  _6
REMARK    4  A    between atoms: _6  and  _7
REMARK    5  A    between atoms: _12  and  _14
REMARK    6  A    between atoms: _14  and  _15
REMARK    7  A    between atoms: _18  and  _19
REMARK    8  A    between atoms: _24  and  _26
REMARK    9  A    between atoms: _26  and  _27
REMARK   10  A    between atoms: _26  and  _29
REMARK   11  A    between atoms: _29  and  _30
REMARK   12  A    between atoms: _35  and  _37
REMARK   13  A    between atoms: _37  and  _38
REMARK   14  A    between atoms: _37  and  _40
REMARK   15  A    between atoms: _40  and  _41
REMARK   16  A    between atoms: _44  and  _46
REMARK   17  A    between atoms: _46  and  _47
REMARK   18  A    between atoms: _49  and  _51
REMARK   19  A    between atoms: _51  and  _52
REMARK   20  A    between atoms: _51  and  _54
REMARK   21  A    between atoms: _54  and  _55
REMARK   22  A    between atoms: _55  and  _56
REMARK   23  A    between atoms: _56  and  _57
REMARK   24  A    between atoms: _66  and  _68
REMARK   25  A    between atoms: _68  and  _69
REMARK   26  A    between atoms: _68  and  _71
REMARK   27  A    between atoms: _71  and  _72
REMARK   28  A    between atoms: _75  and  _77
REMARK   29  A    between atoms: _77  and  _78
REMARK   30  A    between atoms: _80  and  _82
REMARK   31  A    between atoms: _82  and  _83
REMARK   32  A    between atoms: _82  and  _85
REMARK   33  A    between atoms: _85  and  _86
REMARK   34  A    between atoms: _86  and  _87
REMARK   35  A    between atoms: _87  and  _88
REMARK   36  A    between atoms: _97  and  _99
REMARK   37  A    between atoms: _99  and  _100
REMARK   38  A    between atoms: _99  and  _102
REMARK   39  A    between atoms: _102  and  _103
REMARK   40  A    between atoms: _103  and  _104
REMARK   41  A    between atoms: _104  and  _105
REMARK   42  A    between atoms: _114  and  _116
REMARK   43  A    between atoms: _116  and  _117
REMARK   44  A    between atoms: _116  and  _119
REMARK   45  A    between atoms: _119  and  _120
REMARK   46  A    between atoms: _120  and  _121
REMARK   47  A    between atoms: _124  and  _126
REMARK   48  A    between atoms: _126  and  _127
REMARK   49  A    between atoms: _126  and  _129
REMARK   50  A    between atoms: _132  and  _134
REMARK   51  A    between atoms: _134  and  _135
REMARK   52  A    between atoms: _134  and  _137
REMARK   53  A    between atoms: _137  and  _138
REMARK   54  A    between atoms: _143  and  _144
REMARK   55  A    between atoms: _146  and  _148
REMARK   56  A    between atoms: _148  and  _149
REMARK   57  A    between atoms: _151  and  _153
REMARK   58  A    between atoms: _153  and  _154
REMARK   59  A    between atoms: _153  and  _156
REMARK   60  A    between atoms: _156  and  _157
REMARK   61  A    between atoms: _160  and  _162
REMARK   62  A    between atoms: _162  and  _163
REMARK   63  A    between atoms: _162  and  _165
REMARK   64  A    between atoms: _165  and  _166
REMARK   65  A    between atoms: _171  and  _173
REMARK   66  A    between atoms: _173  and  _174
REMARK   67  A    between atoms: _173  and  _176
REMARK   68  A    between atoms: _176  and  _177
REMARK   69  A    between atoms: _180  and  _182
REMARK   70  A    between atoms: _182  and  _183
REMARK   71  A    between atoms: _182  and  _185
REMARK   72  A    between atoms: _185  and  _186
REMARK   73  A    between atoms: _186  and  _187
REMARK   74  A    between atoms: _192  and  _194
REMARK   75  A    between atoms: _194  and  _195
REMARK   76  A    between atoms: _194  and  _197
REMARK   77  A    between atoms: _197  and  _198
REMARK   78  A    between atoms: _201  and  _203
REMARK   79  A    between atoms: _203  and  _204
REMARK   80  A    between atoms: _203  and  _206
REMARK   81  A    between atoms: _206  and  _207
REMARK   82  A    between atoms: _210  and  _212
REMARK   83  A    between atoms: _212  and  _213
REMARK   84  A    between atoms: _212  and  _215
REMARK   85  A    between atoms: _215  and  _216
REMARK   86  A    between atoms: _221  and  _223
REMARK   87  A    between atoms: _223  and  _224
REMARK   88  A    between atoms: _227  and  _229
REMARK   89  A    between atoms: _229  and  _230
REMARK   90  A    between atoms: _232  and  _234
REMARK   91  A    between atoms: _234  and  _235
REMARK   92  A    between atoms: _237  and  _239
REMARK   93  A    between atoms: _239  and  _240
REMARK   94  A    between atoms: _239  and  _242
REMARK   95  A    between atoms: _242  and  _243
REMARK   96  A    between atoms: _246  and  _248
REMARK   97  A    between atoms: _248  and  _249
REMARK   98  A    between atoms: _248  and  _251
REMARK   99  A    between atoms: _251  and  _252
REMARK  100  A    between atoms: _255  and  _257
REMARK  101  A    between atoms: _257  and  _258
REMARK  102  A    between atoms: _257  and  _260
REMARK  103  A    between atoms: _260  and  _261
REMARK  104  A    between atoms: _266  and  _268
REMARK  105  A    between atoms: _268  and  _269
REMARK  106  A    between atoms: _268  and  _271
REMARK  107  A    between atoms: _271  and  _272
REMARK  108  A    between atoms: _272  and  _273
REMARK  109  A    between atoms: _276  and  _278
REMARK  110  A    between atoms: _278  and  _279
REMARK  111  A    between atoms: _278  and  _281
REMARK  112  A    between atoms: _284  and  _286
REMARK  113  A    between atoms: _286  and  _287
REMARK  114  A    between atoms: _286  and  _289
REMARK  115  A    between atoms: _289  and  _290
REMARK  116  A    between atoms: _295  and  _297
REMARK  117  A    between atoms: _297  and  _298
REMARK  118  A    between atoms: _297  and  _300
REMARK  119  A    between atoms: _300  and  _301
REMARK  120  A    between atoms: _304  and  _306
REMARK  121  A    between atoms: _306  and  _307
REMARK  122  A    between atoms: _306  and  _309
REMARK  123  A    between atoms: _309  and  _310
REMARK  124  A    between atoms: _312  and  _314
REMARK  125  A    between atoms: _314  and  _315
REMARK  126  A    between atoms: _314  and  _317
REMARK  127  A    between atoms: _317  and  _318
REMARK  128  A    between atoms: _323  and  _325
REMARK  129  A    between atoms: _325  and  _326
REMARK  130  A    between atoms: _325  and  _328
REMARK  131  A    between atoms: _331  and  _333
REMARK  132  A    between atoms: _333  and  _334
REMARK  133  A    between atoms: _333  and  _336
REMARK  134  A    between atoms: _336  and  _337
REMARK  135  A    between atoms: _342  and  _344
REMARK  136  A    between atoms: _344  and  _345
REMARK  137  A    between atoms: _344  and  _347
REMARK  138  A    between atoms: _347  and  _348
REMARK  139  A    between atoms: _348  and  _349
REMARK  140  A    between atoms: _349  and  _350
REMARK  141  A    between atoms: _359  and  _361
REMARK  142  A    between atoms: _361  and  _362
REMARK  143  A    between atoms: _361  and  _364
REMARK  144  A    between atoms: _364  and  _365
REMARK  145  A    between atoms: _365  and  _366
REMARK  146  A    between atoms: _369  and  _371
REMARK  147  A    between atoms: _371  and  _372
REMARK  148  A    between atoms: _371  and  _374
REMARK  149  A    between atoms: _374  and  _375
REMARK  150  A    between atoms: _381  and  _383
REMARK  151  A    between atoms: _383  and  _384
REMARK  152  A    between atoms: _383  and  _386
REMARK  153  A    between atoms: _386  and  _387
REMARK  154  A    between atoms: _387  and  _388
REMARK  155  A    between atoms: _388  and  _389
REMARK  156  A    between atoms: _398  and  _400
REMARK  157  A    between atoms: _400  and  _401
REMARK  158  A    between atoms: _400  and  _403
REMARK  159  A    between atoms: _403  and  _404
REMARK  160  A    between atoms: _404  and  _405
REMARK  161  A    between atoms: _405  and  _406
REMARK  162  A    between atoms: _415  and  _417
REMARK  163  A    between atoms: _417  and  _418
REMARK  164  A    between atoms: _417  and  _420
REMARK  165  A    between atoms: _420  and  _421
REMARK  166  A    between atoms: _426  and  _428
REMARK  167  A    between atoms: _428  and  _429
REMARK  168  A    between atoms: _428  and  _431
REMARK  169  A    between atoms: _431  and  _432
REMARK  170  A    between atoms: _435  and  _437
REMARK  171  A    between atoms: _437  and  _438
REMARK  172  A    between atoms: _437  and  _440
REMARK  173  A    between atoms: _443  and  _445
REMARK  174  A    between atoms: _445  and  _446
REMARK  175  A    between atoms: _448  and  _450
REMARK  176  A    between atoms: _450  and  _451
REMARK  177  A    between atoms: _450  and  _453
REMARK  178  A    between atoms: _453  and  _454
REMARK  179  A    between atoms: _457  and  _459
REMARK  180  A    between atoms: _459  and  _460
REMARK  181  A    between atoms: _462  and  _464
REMARK  182  A    between atoms: _464  and  _465
REMARK  183  A    between atoms: _464  and  _467
REMARK  184  A    between atoms: _467  and  _468
REMARK  185  A    between atoms: _471  and  _473
REMARK  186  A    between atoms: _473  and  _474
REMARK  187  A    between atoms: _473  and  _476
REMARK  188  A    between atoms: _476  and  _477
REMARK  189  A    between atoms: _482  and  _483
REMARK  190  A    between atoms: _485  and  _487
REMARK  191  A    between atoms: _487  and  _488
REMARK  192  A    between atoms: _487  and  _490
REMARK  193  A    between atoms: _490  and  _491
REMARK  194  A    between atoms: _496  and  _498
REMARK  195  A    between atoms: _498  and  _499
REMARK  196  A    between atoms: _498  and  _501
REMARK  197  A    between atoms: _504  and  _506
REMARK  198  A    between atoms: _506  and  _507
REMARK  199  A    between atoms: _510  and  _512
REMARK  200  A    between atoms: _512  and  _513
REMARK  201  A    between atoms: _512  and  _515
REMARK  202  A    between atoms: _515  and  _516
REMARK  203  A    between atoms: _519  and  _521
REMARK  204  A    between atoms: _521  and  _522
REMARK  205  A    between atoms: _521  and  _524
REMARK  206  A    between atoms: _524  and  _525
REMARK  207  A    between atoms: _525  and  _526
REMARK  208  A    between atoms: _526  and  _527
REMARK  209  A    between atoms: _536  and  _538
REMARK  210  A    between atoms: _538  and  _539
REMARK  211  A    between atoms: _538  and  _541
REMARK  212  A    between atoms: _541  and  _542
REMARK  213  A    between atoms: _545  and  _547
REMARK  214  A    between atoms: _547  and  _548
REMARK  215  A    between atoms: _551  and  _553
REMARK  216  A    between atoms: _553  and  _554
REMARK  217  A    between atoms: _553  and  _556
REMARK  218  A    between atoms: _558  and  _560
REMARK  219  A    between atoms: _560  and  _561
REMARK  220  A    between atoms: _564  and  _566
REMARK  221  A    between atoms: _566  and  _567
REMARK  222  A    between atoms: _566  and  _569
REMARK  223  A    between atoms: _569  and  _570
REMARK  224  A    between atoms: _570  and  _571
REMARK                            x       y       z     vdW  Elec       q    Type
REMARK                         _______ _______ _______ _____ _____    ______ ____
ROOT
ATOM      1  O   HOH     1      36.114  45.542  13.289  0.00  0.00    +0.000 OA
ENDROOT
TORSDOF 0
REMARK  Name = ../refined-set-2016/4b6p/4b6p_pocket.pdb
REMARK  224 active torsions:
REMARK  status: ('A' for Active; 'I' for Inactive)
REMARK    1  A    between atoms: _1  and  _3
REMARK    2  A    between atoms: _3  and  _4
REMARK    3  A    between atoms: _3  and  _6
REMARK    4  A    between atoms: _6  and  _7
REMARK    5  A    between atoms: _12  and  _14
REMARK    6  A    between atoms: _14  and  _15
REMARK    7  A    between atoms: _18  and  _19
REMARK    8  A    between atoms: _24  and  _26
REMARK    9  A    between atoms: _26  and  _27
REMARK   10  A    between atoms: _26  and  _29
REMARK   11  A    between atoms: _29  and  _30
REMARK   12  A    between atoms: _35  and  _37
REMARK   13  A    between atoms: _37  and  _38
REMARK   14  A    between atoms: _37  and  _40
REMARK   15  A    between atoms: _40  and  _41
REMARK   16  A    between atoms: _44  and  _46
REMARK   17  A    between atoms: _46  and  _47
REMARK   18  A    between atoms: _49  and  _51
REMARK   19  A    between atoms: _51  and  _52
REMARK   20  A    between atoms: _51  and  _54
REMARK   21  A    between atoms: _54  and  _55
REMARK   22  A    between atoms: _55  and  _56
REMARK   23  A    between atoms: _56  and  _57
REMARK   24  A    between atoms: _66  and  _68
REMARK   25  A    between atoms: _68  and  _69
REMARK   26  A    between atoms: _68  and  _71
REMARK   27  A    between atoms: _71  and  _72
REMARK   28  A    between atoms: _75  and  _77
REMARK   29  A    between atoms: _77  and  _78
REMARK   30  A    between atoms: _80  and  _82
REMARK   31  A    between atoms: _82  and  _83
REMARK   32  A    between atoms: _82  and  _85
REMARK   33  A    between atoms: _85  and  _86
REMARK   34  A    between atoms: _86  and  _87
REMARK   35  A    between atoms: _87  and  _88
REMARK   36  A    between atoms: _97  and  _99
REMARK   37  A    between atoms: _99  and  _100
REMARK   38  A    between atoms: _99  and  _102
REMARK   39  A    between atoms: _102  and  _103
REMARK   40  A    between atoms: _103  and  _104
REMARK   41  A    between atoms: _104  and  _105
REMARK   42  A    between atoms: _114  and  _116
REMARK   43  A    between atoms: _116  and  _117
REMARK   44  A    between atoms: _116  and  _119
REMARK   45  A    between atoms: _119  and  _120
REMARK   46  A    between atoms: _120  and  _121
REMARK   47  A    between atoms: _124  and  _126
REMARK   48  A    between atoms: _126  and  _127
REMARK   49  A    between atoms: _126  and  _129
REMARK   50  A    between atoms: _132  and  _134
REMARK   51  A    between atoms: _134  and  _135
REMARK   52  A    between atoms: _134  and  _137
REMARK   53  A    between atoms: _137  and  _138
REMARK   54  A    between atoms: _143  and  _144
REMARK   55  A    between atoms: _146  and  _148
REMARK   56  A    between atoms: _148  and  _149
REMARK   57  A    between atoms: _151  and  _153
REMARK   58  A    between atoms: _153  and  _154
REMARK   59  A    between atoms: _153  and  _156
REMARK   60  A    between atoms: _156  and  _157
REMARK   61  A    between atoms: _160  and  _162
REMARK   62  A    between atoms: _162  and  _163
REMARK   63  A    between atoms: _162  and  _165
REMARK   64  A    between atoms: _165  and  _166
REMARK   65  A    between atoms: _171  and  _173
REMARK   66  A    between atoms: _173  and  _174
REMARK   67  A    between atoms: _173  and  _176
REMARK   68  A    between atoms: _176  and  _177
REMARK   69  A    between atoms: _180  and  _182
REMARK   70  A    between atoms: _182  and  _183
REMARK   71  A    between atoms: _182  and  _185
REMARK   72  A    between atoms: _185  and  _186
REMARK   73  A    between atoms: _186  and  _187
REMARK   74  A    between atoms: _192  and  _194
REMARK   75  A    between atoms: _194  and  _195
REMARK   76  A    between atoms: _194  and  _197
REMARK   77  A    between atoms: _197  and  _198
REMARK   78  A    between atoms: _201  and  _203
REMARK   79  A    between atoms: _203  and  _204
REMARK   80  A    between atoms: _203  and  _206
REMARK   81  A    between atoms: _206  and  _207
REMARK   82  A    between atoms: _210  and  _212
REMARK   83  A    between atoms: _212  and  _213
REMARK   84  A    between atoms: _212  and  _215
REMARK   85  A    between atoms: _215  and  _216
REMARK   86  A    between atoms: _221  and  _223
REMARK   87  A    between atoms: _223  and  _224
REMARK   88  A    between atoms: _227  and  _229
REMARK   89  A    between atoms: _229  and  _230
REMARK   90  A    between atoms: _232  and  _234
REMARK   91  A    between atoms: _234  and  _235
REMARK   92  A    between atoms: _237  and  _239
REMARK   93  A    between atoms: _239  and  _240
REMARK   94  A    between atoms: _239  and  _242
REMARK   95  A    between atoms: _242  and  _243
REMARK   96  A    between atoms: _246  and  _248
REMARK   97  A    between atoms: _248  and  _249
REMARK   98  A    between atoms: _248  and  _251
REMARK   99  A    between atoms: _251  and  _252
REMARK  100  A    between atoms: _255  and  _257
REMARK  101  A    between atoms: _257  and  _258
REMARK  102  A    between atoms: _257  and  _260
REMARK  103  A    between atoms: _260  and  _261
REMARK  104  A    between atoms: _266  and  _268
REMARK  105  A    between atoms: _268  and  _269
REMARK  106  A    between atoms: _268  and  _271
REMARK  107  A    between atoms: _271  and  _272
REMARK  108  A    between atoms: _272  and  _273
REMARK  109  A    between atoms: _276  and  _278
REMARK  110  A    between atoms: _278  and  _279
REMARK  111  A    between atoms: _278  and  _281
REMARK  112  A    between atoms: _284  and  _286
REMARK  113  A    between atoms: _286  and  _287
REMARK  114  A    between atoms: _286  and  _289
REMARK  115  A    between atoms: _289  and  _290
REMARK  116  A    between atoms: _295  and  _297
REMARK  117  A    between atoms: _297  and  _298
REMARK  118  A    between atoms: _297  and  _300
REMARK  119  A    between atoms: _300  and  _301
REMARK  120  A    between atoms: _304  and  _306
REMARK  121  A    between atoms: _306  and  _307
REMARK  122  A    between atoms: _306  and  _309
REMARK  123  A    between atoms: _309  and  _310
REMARK  124  A    between atoms: _312  and  _314
REMARK  125  A    between atoms: _314  and  _315
REMARK  126  A    between atoms: _314  and  _317
REMARK  127  A    between atoms: _317  and  _318
REMARK  128  A    between atoms: _323  and  _325
REMARK  129  A    between atoms: _325  and  _326
REMARK  130  A    between atoms: _325  and  _328
REMARK  131  A    between atoms: _331  and  _333
REMARK  132  A    between atoms: _333  and  _334
REMARK  133  A    between atoms: _333  and  _336
REMARK  134  A    between atoms: _336  and  _337
REMARK  135  A    between atoms: _342  and  _344
REMARK  136  A    between atoms: _344  and  _345
REMARK  137  A    between atoms: _344  and  _347
REMARK  138  A    between atoms: _347  and  _348
REMARK  139  A    between atoms: _348  and  _349
REMARK  140  A    between atoms: _349  and  _350
REMARK  141  A    between atoms: _359  and  _361
REMARK  142  A    between atoms: _361  and  _362
REMARK  143  A    between atoms: _361  and  _364
REMARK  144  A    between atoms: _364  and  _365
REMARK  145  A    between atoms: _365  and  _366
REMARK  146  A    between atoms: _369  and  _371
REMARK  147  A    between atoms: _371  and  _372
REMARK  148  A    between atoms: _371  and  _374
REMARK  149  A    between atoms: _374  and  _375
REMARK  150  A    between atoms: _381  and  _383
REMARK  151  A    between atoms: _383  and  _384
REMARK  152  A    between atoms: _383  and  _386
REMARK  153  A    between atoms: _386  and  _387
REMARK  154  A    between atoms: _387  and  _388
REMARK  155  A    between atoms: _388  and  _389
REMARK  156  A    between atoms: _398  and  _400
REMARK  157  A    between atoms: _400  and  _401
REMARK  158  A    between atoms: _400  and  _403
REMARK  159  A    between atoms: _403  and  _404
REMARK  160  A    between atoms: _404  and  _405
REMARK  161  A    between atoms: _405  and  _406
REMARK  162  A    between atoms: _415  and  _417
REMARK  163  A    between atoms: _417  and  _418
REMARK  164  A    between atoms: _417  and  _420
REMARK  165  A    between atoms: _420  and  _421
REMARK  166  A    between atoms: _426  and  _428
REMARK  167  A    between atoms: _428  and  _429
REMARK  168  A    between atoms: _428  and  _431
REMARK  169  A    between atoms: _431  and  _432
REMARK  170  A    between atoms: _435  and  _437
REMARK  171  A    between atoms: _437  and  _438
REMARK  172  A    between atoms: _437  and  _440
REMARK  173  A    between atoms: _443  and  _445
REMARK  174  A    between atoms: _445  and  _446
REMARK  175  A    between atoms: _448  and  _450
REMARK  176  A    between atoms: _450  and  _451
REMARK  177  A    between atoms: _450  and  _453
REMARK  178  A    between atoms: _453  and  _454
REMARK  179  A    between atoms: _457  and  _459
REMARK  180  A    between atoms: _459  and  _460
REMARK  181  A    between atoms: _462  and  _464
REMARK  182  A    between atoms: _464  and  _465
REMARK  183  A    between atoms: _464  and  _467
REMARK  184  A    between atoms: _467  and  _468
REMARK  185  A    between atoms: _471  and  _473
REMARK  186  A    between atoms: _473  and  _474
REMARK  187  A    between atoms: _473  and  _476
REMARK  188  A    between atoms: _476  and  _477
REMARK  189  A    between atoms: _482  and  _483
REMARK  190  A    between atoms: _485  and  _487
REMARK  191  A    between atoms: _487  and  _488
REMARK  192  A    between atoms: _487  and  _490
REMARK  193  A    between atoms: _490  and  _491
REMARK  194  A    between atoms: _496  and  _498
REMARK  195  A    between atoms: _498  and  _499
REMARK  196  A    between atoms: _498  and  _501
REMARK  197  A    between atoms: _504  and  _506
REMARK  198  A    between atoms: _506  and  _507
REMARK  199  A    between atoms: _510  and  _512
REMARK  200  A    between atoms: _512  and  _513
REMARK  201  A    between atoms: _512  and  _515
REMARK  202  A    between atoms: _515  and  _516
REMARK  203  A    between atoms: _519  and  _521
REMARK  204  A    between atoms: _521  and  _522
REMARK  205  A    between atoms: _521  and  _524
REMARK  206  A    between atoms: _524  and  _525
REMARK  207  A    between atoms: _525  and  _526
REMARK  208  A    between atoms: _526  and  _527
REMARK  209  A    between atoms: _536  and  _538
REMARK  210  A    between atoms: _538  and  _539
REMARK  211  A    between atoms: _538  and  _541
REMARK  212  A    between atoms: _541  and  _542
REMARK  213  A    between atoms: _545  and  _547
REMARK  214  A    between atoms: _547  and  _548
REMARK  215  A    between atoms: _551  and  _553
REMARK  216  A    between atoms: _553  and  _554
REMARK  217  A    between atoms: _553  and  _556
REMARK  218  A    between atoms: _558  and  _560
REMARK  219  A    between atoms: _560  and  _561
REMARK  220  A    between atoms: _564  and  _566
REMARK  221  A    between atoms: _566  and  _567
REMARK  222  A    between atoms: _566  and  _569
REMARK  223  A    between atoms: _569  and  _570
REMARK  224  A    between atoms: _570  and  _571
REMARK                            x       y       z     vdW  Elec       q    Type
REMARK                         _______ _______ _______ _____ _____    ______ ____
ROOT
ATOM      1  O   HOH     1      32.035  48.788  11.402  0.00  0.00    +0.000 OA
ENDROOT
TORSDOF 0
REMARK  Name = ../refined-set-2016/4b6p/4b6p_pocket.pdb
REMARK  224 active torsions:
REMARK  status: ('A' for Active; 'I' for Inactive)
REMARK    1  A    between atoms: _1  and  _3
REMARK    2  A    between atoms: _3  and  _4
REMARK    3  A    between atoms: _3  and  _6
REMARK    4  A    between atoms: _6  and  _7
REMARK    5  A    between atoms: _12  and  _14
REMARK    6  A    between atoms: _14  and  _15
REMARK    7  A    between atoms: _18  and  _19
REMARK    8  A    between atoms: _24  and  _26
REMARK    9  A    between atoms: _26  and  _27
REMARK   10  A    between atoms: _26  and  _29
REMARK   11  A    between atoms: _29  and  _30
REMARK   12  A    between atoms: _35  and  _37
REMARK   13  A    between atoms: _37  and  _38
REMARK   14  A    between atoms: _37  and  _40
REMARK   15  A    between atoms: _40  and  _41
REMARK   16  A    between atoms: _44  and  _46
REMARK   17  A    between atoms: _46  and  _47
REMARK   18  A    between atoms: _49  and  _51
REMARK   19  A    between atoms: _51  and  _52
REMARK   20  A    between atoms: _51  and  _54
REMARK   21  A    between atoms: _54  and  _55
REMARK   22  A    between atoms: _55  and  _56
REMARK   23  A    between atoms: _56  and  _57
REMARK   24  A    between atoms: _66  and  _68
REMARK   25  A    between atoms: _68  and  _69
REMARK   26  A    between atoms: _68  and  _71
REMARK   27  A    between atoms: _71  and  _72
REMARK   28  A    between atoms: _75  and  _77
REMARK   29  A    between atoms: _77  and  _78
REMARK   30  A    between atoms: _80  and  _82
REMARK   31  A    between atoms: _82  and  _83
REMARK   32  A    between atoms: _82  and  _85
REMARK   33  A    between atoms: _85  and  _86
REMARK   34  A    between atoms: _86  and  _87
REMARK   35  A    between atoms: _87  and  _88
REMARK   36  A    between atoms: _97  and  _99
REMARK   37  A    between atoms: _99  and  _100
REMARK   38  A    between atoms: _99  and  _102
REMARK   39  A    between atoms: _102  and  _103
REMARK   40  A    between atoms: _103  and  _104
REMARK   41  A    between atoms: _104  and  _105
REMARK   42  A    between atoms: _114  and  _116
REMARK   43  A    between atoms: _116  and  _117
REMARK   44  A    between atoms: _116  and  _119
REMARK   45  A    between atoms: _119  and  _120
REMARK   46  A    between atoms: _120  and  _121
REMARK   47  A    between atoms: _124  and  _126
REMARK   48  A    between atoms: _126  and  _127
REMARK   49  A    between atoms: _126  and  _129
REMARK   50  A    between atoms: _132  and  _134
REMARK   51  A    between atoms: _134  and  _135
REMARK   52  A    between atoms: _134  and  _137
REMARK   53  A    between atoms: _137  and  _138
REMARK   54  A    between atoms: _143  and  _144
REMARK   55  A    between atoms: _146  and  _148
REMARK   56  A    between atoms: _148  and  _149
REMARK   57  A    between atoms: _151  and  _153
REMARK   58  A    between atoms: _153  and  _154
REMARK   59  A    between atoms: _153  and  _156
REMARK   60  A    between atoms: _156  and  _157
REMARK   61  A    between atoms: _160  and  _162
REMARK   62  A    between atoms: _162  and  _163
REMARK   63  A    between atoms: _162  and  _165
REMARK   64  A    between atoms: _165  and  _166
REMARK   65  A    between atoms: _171  and  _173
REMARK   66  A    between atoms: _173  and  _174
REMARK   67  A    between atoms: _173  and  _176
REMARK   68  A    between atoms: _176  and  _177
REMARK   69  A    between atoms: _180  and  _182
REMARK   70  A    between atoms: _182  and  _183
REMARK   71  A    between atoms: _182  and  _185
REMARK   72  A    between atoms: _185  and  _186
REMARK   73  A    between atoms: _186  and  _187
REMARK   74  A    between atoms: _192  and  _194
REMARK   75  A    between atoms: _194  and  _195
REMARK   76  A    between atoms: _194  and  _197
REMARK   77  A    between atoms: _197  and  _198
REMARK   78  A    between atoms: _201  and  _203
REMARK   79  A    between atoms: _203  and  _204
REMARK   80  A    between atoms: _203  and  _206
REMARK   81  A    between atoms: _206  and  _207
REMARK   82  A    between atoms: _210  and  _212
REMARK   83  A    between atoms: _212  and  _213
REMARK   84  A    between atoms: _212  and  _215
REMARK   85  A    between atoms: _215  and  _216
REMARK   86  A    between atoms: _221  and  _223
REMARK   87  A    between atoms: _223  and  _224
REMARK   88  A    between atoms: _227  and  _229
REMARK   89  A    between atoms: _229  and  _230
REMARK   90  A    between atoms: _232  and  _234
REMARK   91  A    between atoms: _234  and  _235
REMARK   92  A    between atoms: _237  and  _239
REMARK   93  A    between atoms: _239  and  _240
REMARK   94  A    between atoms: _239  and  _242
REMARK   95  A    between atoms: _242  and  _243
REMARK   96  A    between atoms: _246  and  _248
REMARK   97  A    between atoms: _248  and  _249
REMARK   98  A    between atoms: _248  and  _251
REMARK   99  A    between atoms: _251  and  _252
REMARK  100  A    between atoms: _255  and  _257
REMARK  101  A    between atoms: _257  and  _258
REMARK  102  A    between atoms: _257  and  _260
REMARK  103  A    between atoms: _260  and  _261
REMARK  104  A    between atoms: _266  and  _268
REMARK  105  A    between atoms: _268  and  _269
REMARK  106  A    between atoms: _268  and  _271
REMARK  107  A    between atoms: _271  and  _272
REMARK  108  A    between atoms: _272  and  _273
REMARK  109  A    between atoms: _276  and  _278
REMARK  110  A    between atoms: _278  and  _279
REMARK  111  A    between atoms: _278  and  _281
REMARK  112  A    between atoms: _284  and  _286
REMARK  113  A    between atoms: _286  and  _287
REMARK  114  A    between atoms: _286  and  _289
REMARK  115  A    between atoms: _289  and  _290
REMARK  116  A    between atoms: _295  and  _297
REMARK  117  A    between atoms: _297  and  _298
REMARK  118  A    between atoms: _297  and  _300
REMARK  119  A    between atoms: _300  and  _301
REMARK  120  A    between atoms: _304  and  _306
REMARK  121  A    between atoms: _306  and  _307
REMARK  122  A    between atoms: _306  and  _309
REMARK  123  A    between atoms: _309  and  _310
REMARK  124  A    between atoms: _312  and  _314
REMARK  125  A    between atoms: _314  and  _315
REMARK  126  A    between atoms: _314  and  _317
REMARK  127  A    between atoms: _317  and  _318
REMARK  128  A    between atoms: _323  and  _325
REMARK  129  A    between atoms: _325  and  _326
REMARK  130  A    between atoms: _325  and  _328
REMARK  131  A    between atoms: _331  and  _333
REMARK  132  A    between atoms: _333  and  _334
REMARK  133  A    between atoms: _333  and  _336
REMARK  134  A    between atoms: _336  and  _337
REMARK  135  A    between atoms: _342  and  _344
REMARK  136  A    between atoms: _344  and  _345
REMARK  137  A    between atoms: _344  and  _347
REMARK  138  A    between atoms: _347  and  _348
REMARK  139  A    between atoms: _348  and  _349
REMARK  140  A    between atoms: _349  and  _350
REMARK  141  A    between atoms: _359  and  _361
REMARK  142  A    between atoms: _361  and  _362
REMARK  143  A    between atoms: _361  and  _364
REMARK  144  A    between atoms: _364  and  _365
REMARK  145  A    between atoms: _365  and  _366
REMARK  146  A    between atoms: _369  and  _371
REMARK  147  A    between atoms: _371  and  _372
REMARK  148  A    between atoms: _371  and  _374
REMARK  149  A    between atoms: _374  and  _375
REMARK  150  A    between atoms: _381  and  _383
REMARK  151  A    between atoms: _383  and  _384
REMARK  152  A    between atoms: _383  and  _386
REMARK  153  A    between atoms: _386  and  _387
REMARK  154  A    between atoms: _387  and  _388
REMARK  155  A    between atoms: _388  and  _389
REMARK  156  A    between atoms: _398  and  _400
REMARK  157  A    between atoms: _400  and  _401
REMARK  158  A    between atoms: _400  and  _403
REMARK  159  A    between atoms: _403  and  _404
REMARK  160  A    between atoms: _404  and  _405
REMARK  161  A    between atoms: _405  and  _406
REMARK  162  A    between atoms: _415  and  _417
REMARK  163  A    between atoms: _417  and  _418
REMARK  164  A    between atoms: _417  and  _420
REMARK  165  A    between atoms: _420  and  _421
REMARK  166  A    between atoms: _426  and  _428
REMARK  167  A    between atoms: _428  and  _429
REMARK  168  A    between atoms: _428  and  _431
REMARK  169  A    between atoms: _431  and  _432
REMARK  170  A    between atoms: _435  and  _437
REMARK  171  A    between atoms: _437  and  _438
REMARK  172  A    between atoms: _437  and  _440
REMARK  173  A    between atoms: _443  and  _445
REMARK  174  A    between atoms: _445  and  _446
REMARK  175  A    between atoms: _448  and  _450
REMARK  176  A    between atoms: _450  and  _451
REMARK  177  A    between atoms: _450  and  _453
REMARK  178  A    between atoms: _453  and  _454
REMARK  179  A    between atoms: _457  and  _459
REMARK  180  A    between atoms: _459  and  _460
REMARK  181  A    between atoms: _462  and  _464
REMARK  182  A    between atoms: _464  and  _465
REMARK  183  A    between atoms: _464  and  _467
REMARK  184  A    between atoms: _467  and  _468
REMARK  185  A    between atoms: _471  and  _473
REMARK  186  A    between atoms: _473  and  _474
REMARK  187  A    between atoms: _473  and  _476
REMARK  188  A    between atoms: _476  and  _477
REMARK  189  A    between atoms: _482  and  _483
REMARK  190  A    between atoms: _485  and  _487
REMARK  191  A    between atoms: _487  and  _488
REMARK  192  A    between atoms: _487  and  _490
REMARK  193  A    between atoms: _490  and  _491
REMARK  194  A    between atoms: _496  and  _498
REMARK  195  A    between atoms: _498  and  _499
REMARK  196  A    between atoms: _498  and  _501
REMARK  197  A    between atoms: _504  and  _506
REMARK  198  A    between atoms: _506  and  _507
REMARK  199  A    between atoms: _510  and  _512
REMARK  200  A    between atoms: _512  and  _513
REMARK  201  A    between atoms: _512  and  _515
REMARK  202  A    between atoms: _515  and  _516
REMARK  203  A    between atoms: _519  and  _521
REMARK  204  A    between atoms: _521  and  _522
REMARK  205  A    between atoms: _521  and  _524
REMARK  206  A    between atoms: _524  and  _525
REMARK  207  A    between atoms: _525  and  _526
REMARK  208  A    between atoms: _526  and  _527
REMARK  209  A    between atoms: _536  and  _538
REMARK  210  A    between atoms: _538  and  _539
REMARK  211  A    between atoms: _538  and  _541
REMARK  212  A    between atoms: _541  and  _542
REMARK  213  A    between atoms: _545  and  _547
REMARK  214  A    between atoms: _547  and  _548
REMARK  215  A    between atoms: _551  and  _553
REMARK  216  A    between atoms: _553  and  _554
REMARK  217  A    between atoms: _553  and  _556
REMARK  218  A    between atoms: _558  and  _560
REMARK  219  A    between atoms: _560  and  _561
REMARK  220  A    between atoms: _564  and  _566
REMARK  221  A    between atoms: _566  and  _567
REMARK  222  A    between atoms: _566  and  _569
REMARK  223  A    between atoms: _569  and  _570
REMARK  224  A    between atoms: _570  and  _571
REMARK                            x       y       z     vdW  Elec       q    Type
REMARK                         _______ _______ _______ _____ _____    ______ ____
ROOT
ATOM      1  O   HOH     1      29.174  36.023  12.175  0.00  0.00    +0.000 OA
ENDROOT
TORSDOF 0
REMARK  Name = ../refined-set-2016/4b6p/4b6p_pocket.pdb
REMARK  224 active torsions:
REMARK  status: ('A' for Active; 'I' for Inactive)
REMARK    1  A    between atoms: _1  and  _3
REMARK    2  A    between atoms: _3  and  _4
REMARK    3  A    between atoms: _3  and  _6
REMARK    4  A    between atoms: _6  and  _7
REMARK    5  A    between atoms: _12  and  _14
REMARK    6  A    between atoms: _14  and  _15
REMARK    7  A    between atoms: _18  and  _19
REMARK    8  A    between atoms: _24  and  _26
REMARK    9  A    between atoms: _26  and  _27
REMARK   10  A    between atoms: _26  and  _29
REMARK   11  A    between atoms: _29  and  _30
REMARK   12  A    between atoms: _35  and  _37
REMARK   13  A    between atoms: _37  and  _38
REMARK   14  A    between atoms: _37  and  _40
REMARK   15  A    between atoms: _40  and  _41
REMARK   16  A    between atoms: _44  and  _46
REMARK   17  A    between atoms: _46  and  _47
REMARK   18  A    between atoms: _49  and  _51
REMARK   19  A    between atoms: _51  and  _52
REMARK   20  A    between atoms: _51  and  _54
REMARK   21  A    between atoms: _54  and  _55
REMARK   22  A    between atoms: _55  and  _56
REMARK   23  A    between atoms: _56  and  _57
REMARK   24  A    between atoms: _66  and  _68
REMARK   25  A    between atoms: _68  and  _69
REMARK   26  A    between atoms: _68  and  _71
REMARK   27  A    between atoms: _71  and  _72
REMARK   28  A    between atoms: _75  and  _77
REMARK   29  A    between atoms: _77  and  _78
REMARK   30  A    between atoms: _80  and  _82
REMARK   31  A    between atoms: _82  and  _83
REMARK   32  A    between atoms: _82  and  _85
REMARK   33  A    between atoms: _85  and  _86
REMARK   34  A    between atoms: _86  and  _87
REMARK   35  A    between atoms: _87  and  _88
REMARK   36  A    between atoms: _97  and  _99
REMARK   37  A    between atoms: _99  and  _100
REMARK   38  A    between atoms: _99  and  _102
REMARK   39  A    between atoms: _102  and  _103
REMARK   40  A    between atoms: _103  and  _104
REMARK   41  A    between atoms: _104  and  _105
REMARK   42  A    between atoms: _114  and  _116
REMARK   43  A    between atoms: _116  and  _117
REMARK   44  A    between atoms: _116  and  _119
REMARK   45  A    between atoms: _119  and  _120
REMARK   46  A    between atoms: _120  and  _121
REMARK   47  A    between atoms: _124  and  _126
REMARK   48  A    between atoms: _126  and  _127
REMARK   49  A    between atoms: _126  and  _129
REMARK   50  A    between atoms: _132  and  _134
REMARK   51  A    between atoms: _134  and  _135
REMARK   52  A    between atoms: _134  and  _137
REMARK   53  A    between atoms: _137  and  _138
REMARK   54  A    between atoms: _143  and  _144
REMARK   55  A    between atoms: _146  and  _148
REMARK   56  A    between atoms: _148  and  _149
REMARK   57  A    between atoms: _151  and  _153
REMARK   58  A    between atoms: _153  and  _154
REMARK   59  A    between atoms: _153  and  _156
REMARK   60  A    between atoms: _156  and  _157
REMARK   61  A    between atoms: _160  and  _162
REMARK   62  A    between atoms: _162  and  _163
REMARK   63  A    between atoms: _162  and  _165
REMARK   64  A    between atoms: _165  and  _166
REMARK   65  A    between atoms: _171  and  _173
REMARK   66  A    between atoms: _173  and  _174
REMARK   67  A    between atoms: _173  and  _176
REMARK   68  A    between atoms: _176  and  _177
REMARK   69  A    between atoms: _180  and  _182
REMARK   70  A    between atoms: _182  and  _183
REMARK   71  A    between atoms: _182  and  _185
REMARK   72  A    between atoms: _185  and  _186
REMARK   73  A    between atoms: _186  and  _187
REMARK   74  A    between atoms: _192  and  _194
REMARK   75  A    between atoms: _194  and  _195
REMARK   76  A    between atoms: _194  and  _197
REMARK   77  A    between atoms: _197  and  _198
REMARK   78  A    between atoms: _201  and  _203
REMARK   79  A    between atoms: _203  and  _204
REMARK   80  A    between atoms: _203  and  _206
REMARK   81  A    between atoms: _206  and  _207
REMARK   82  A    between atoms: _210  and  _212
REMARK   83  A    between atoms: _212  and  _213
REMARK   84  A    between atoms: _212  and  _215
REMARK   85  A    between atoms: _215  and  _216
REMARK   86  A    between atoms: _221  and  _223
REMARK   87  A    between atoms: _223  and  _224
REMARK   88  A    between atoms: _227  and  _229
REMARK   89  A    between atoms: _229  and  _230
REMARK   90  A    between atoms: _232  and  _234
REMARK   91  A    between atoms: _234  and  _235
REMARK   92  A    between atoms: _237  and  _239
REMARK   93  A    between atoms: _239  and  _240
REMARK   94  A    between atoms: _239  and  _242
REMARK   95  A    between atoms: _242  and  _243
REMARK   96  A    between atoms: _246  and  _248
REMARK   97  A    between atoms: _248  and  _249
REMARK   98  A    between atoms: _248  and  _251
REMARK   99  A    between atoms: _251  and  _252
REMARK  100  A    between atoms: _255  and  _257
REMARK  101  A    between atoms: _257  and  _258
REMARK  102  A    between atoms: _257  and  _260
REMARK  103  A    between atoms: _260  and  _261
REMARK  104  A    between atoms: _266  and  _268
REMARK  105  A    between atoms: _268  and  _269
REMARK  106  A    between atoms: _268  and  _271
REMARK  107  A    between atoms: _271  and  _272
REMARK  108  A    between atoms: _272  and  _273
REMARK  109  A    between atoms: _276  and  _278
REMARK  110  A    between atoms: _278  and  _279
REMARK  111  A    between atoms: _278  and  _281
REMARK  112  A    between atoms: _284  and  _286
REMARK  113  A    between atoms: _286  and  _287
REMARK  114  A    between atoms: _286  and  _289
REMARK  115  A    between atoms: _289  and  _290
REMARK  116  A    between atoms: _295  and  _297
REMARK  117  A    between atoms: _297  and  _298
REMARK  118  A    between atoms: _297  and  _300
REMARK  119  A    between atoms: _300  and  _301
REMARK  120  A    between atoms: _304  and  _306
REMARK  121  A    between atoms: _306  and  _307
REMARK  122  A    between atoms: _306  and  _309
REMARK  123  A    between atoms: _309  and  _310
REMARK  124  A    between atoms: _312  and  _314
REMARK  125  A    between atoms: _314  and  _315
REMARK  126  A    between atoms: _314  and  _317
REMARK  127  A    between atoms: _317  and  _318
REMARK  128  A    between atoms: _323  and  _325
REMARK  129  A    between atoms: _325  and  _326
REMARK  130  A    between atoms: _325  and  _328
REMARK  131  A    between atoms: _331  and  _333
REMARK  132  A    between atoms: _333  and  _334
REMARK  133  A    between atoms: _333  and  _336
REMARK  134  A    between atoms: _336  and  _337
REMARK  135  A    between atoms: _342  and  _344
REMARK  136  A    between atoms: _344  and  _345
REMARK  137  A    between atoms: _344  and  _347
REMARK  138  A    between atoms: _347  and  _348
REMARK  139  A    between atoms: _348  and  _349
REMARK  140  A    between atoms: _349  and  _350
REMARK  141  A    between atoms: _359  and  _361
REMARK  142  A    between atoms: _361  and  _362
REMARK  143  A    between atoms: _361  and  _364
REMARK  144  A    between atoms: _364  and  _365
REMARK  145  A    between atoms: _365  and  _366
REMARK  146  A    between atoms: _369  and  _371
REMARK  147  A    between atoms: _371  and  _372
REMARK  148  A    between atoms: _371  and  _374
REMARK  149  A    between atoms: _374  and  _375
REMARK  150  A    between atoms: _381  and  _383
REMARK  151  A    between atoms: _383  and  _384
REMARK  152  A    between atoms: _383  and  _386
REMARK  153  A    between atoms: _386  and  _387
REMARK  154  A    between atoms: _387  and  _388
REMARK  155  A    between atoms: _388  and  _389
REMARK  156  A    between atoms: _398  and  _400
REMARK  157  A    between atoms: _400  and  _401
REMARK  158  A    between atoms: _400  and  _403
REMARK  159  A    between atoms: _403  and  _404
REMARK  160  A    between atoms: _404  and  _405
REMARK  161  A    between atoms: _405  and  _406
REMARK  162  A    between atoms: _415  and  _417
REMARK  163  A    between atoms: _417  and  _418
REMARK  164  A    between atoms: _417  and  _420
REMARK  165  A    between atoms: _420  and  _421
REMARK  166  A    between atoms: _426  and  _428
REMARK  167  A    between atoms: _428  and  _429
REMARK  168  A    between atoms: _428  and  _431
REMARK  169  A    between atoms: _431  and  _432
REMARK  170  A    between atoms: _435  and  _437
REMARK  171  A    between atoms: _437  and  _438
REMARK  172  A    between atoms: _437  and  _440
REMARK  173  A    between atoms: _443  and  _445
REMARK  174  A    between atoms: _445  and  _446
REMARK  175  A    between atoms: _448  and  _450
REMARK  176  A    between atoms: _450  and  _451
REMARK  177  A    between atoms: _450  and  _453
REMARK  178  A    between atoms: _453  and  _454
REMARK  179  A    between atoms: _457  and  _459
REMARK  180  A    between atoms: _459  and  _460
REMARK  181  A    between atoms: _462  and  _464
REMARK  182  A    between atoms: _464  and  _465
REMARK  183  A    between atoms: _464  and  _467
REMARK  184  A    between atoms: _467  and  _468
REMARK  185  A    between atoms: _471  and  _473
REMARK  186  A    between atoms: _473  and  _474
REMARK  187  A    between atoms: _473  and  _476
REMARK  188  A    between atoms: _476  and  _477
REMARK  189  A    between atoms: _482  and  _483
REMARK  190  A    between atoms: _485  and  _487
REMARK  191  A    between atoms: _487  and  _488
REMARK  192  A    between atoms: _487  and  _490
REMARK  193  A    between atoms: _490  and  _491
REMARK  194  A    between atoms: _496  and  _498
REMARK  195  A    between atoms: _498  and  _499
REMARK  196  A    between atoms: _498  and  _501
REMARK  197  A    between atoms: _504  and  _506
REMARK  198  A    between atoms: _506  and  _507
REMARK  199  A    between atoms: _510  and  _512
REMARK  200  A    between atoms: _512  and  _513
REMARK  201  A    between atoms: _512  and  _515
REMARK  202  A    between atoms: _515  and  _516
REMARK  203  A    between atoms: _519  and  _521
REMARK  204  A    between atoms: _521  and  _522
REMARK  205  A    between atoms: _521  and  _524
REMARK  206  A    between atoms: _524  and  _525
REMARK  207  A    between atoms: _525  and  _526
REMARK  208  A    between atoms: _526  and  _527
REMARK  209  A    between atoms: _536  and  _538
REMARK  210  A    between atoms: _538  and  _539
REMARK  211  A    between atoms: _538  and  _541
REMARK  212  A    between atoms: _541  and  _542
REMARK  213  A    between atoms: _545  and  _547
REMARK  214  A    between atoms: _547  and  _548
REMARK  215  A    between atoms: _551  and  _553
REMARK  216  A    between atoms: _553  and  _554
REMARK  217  A    between atoms: _553  and  _556
REMARK  218  A    between atoms: _558  and  _560
REMARK  219  A    between atoms: _560  and  _561
REMARK  220  A    between atoms: _564  and  _566
REMARK  221  A    between atoms: _566  and  _567
REMARK  222  A    between atoms: _566  and  _569
REMARK  223  A    between atoms: _569  and  _570
REMARK  224  A    between atoms: _570  and  _571
REMARK                            x       y       z     vdW  Elec       q    Type
REMARK                         _______ _______ _______ _____ _____    ______ ____
ROOT
ATOM      1  O   HOH     1      27.554  56.708   9.108  0.00  0.00    +0.000 OA
ENDROOT
TORSDOF 0
REMARK  Name = ../refined-set-2016/4b6p/4b6p_pocket.pdb
REMARK  224 active torsions:
REMARK  status: ('A' for Active; 'I' for Inactive)
REMARK    1  A    between atoms: _1  and  _3
REMARK    2  A    between atoms: _3  and  _4
REMARK    3  A    between atoms: _3  and  _6
REMARK    4  A    between atoms: _6  and  _7
REMARK    5  A    between atoms: _12  and  _14
REMARK    6  A    between atoms: _14  and  _15
REMARK    7  A    between atoms: _18  and  _19
REMARK    8  A    between atoms: _24  and  _26
REMARK    9  A    between atoms: _26  and  _27
REMARK   10  A    between atoms: _26  and  _29
REMARK   11  A    between atoms: _29  and  _30
REMARK   12  A    between atoms: _35  and  _37
REMARK   13  A    between atoms: _37  and  _38
REMARK   14  A    between atoms: _37  and  _40
REMARK   15  A    between atoms: _40  and  _41
REMARK   16  A    between atoms: _44  and  _46
REMARK   17  A    between atoms: _46  and  _47
REMARK   18  A    between atoms: _49  and  _51
REMARK   19  A    between atoms: _51  and  _52
REMARK   20  A    between atoms: _51  and  _54
REMARK   21  A    between atoms: _54  and  _55
REMARK   22  A    between atoms: _55  and  _56
REMARK   23  A    between atoms: _56  and  _57
REMARK   24  A    between atoms: _66  and  _68
REMARK   25  A    between atoms: _68  and  _69
REMARK   26  A    between atoms: _68  and  _71
REMARK   27  A    between atoms: _71  and  _72
REMARK   28  A    between atoms: _75  and  _77
REMARK   29  A    between atoms: _77  and  _78
REMARK   30  A    between atoms: _80  and  _82
REMARK   31  A    between atoms: _82  and  _83
REMARK   32  A    between atoms: _82  and  _85
REMARK   33  A    between atoms: _85  and  _86
REMARK   34  A    between atoms: _86  and  _87
REMARK   35  A    between atoms: _87  and  _88
REMARK   36  A    between atoms: _97  and  _99
REMARK   37  A    between atoms: _99  and  _100
REMARK   38  A    between atoms: _99  and  _102
REMARK   39  A    between atoms: _102  and  _103
REMARK   40  A    between atoms: _103  and  _104
REMARK   41  A    between atoms: _104  and  _105
REMARK   42  A    between atoms: _114  and  _116
REMARK   43  A    between atoms: _116  and  _117
REMARK   44  A    between atoms: _116  and  _119
REMARK   45  A    between atoms: _119  and  _120
REMARK   46  A    between atoms: _120  and  _121
REMARK   47  A    between atoms: _124  and  _126
REMARK   48  A    between atoms: _126  and  _127
REMARK   49  A    between atoms: _126  and  _129
REMARK   50  A    between atoms: _132  and  _134
REMARK   51  A    between atoms: _134  and  _135
REMARK   52  A    between atoms: _134  and  _137
REMARK   53  A    between atoms: _137  and  _138
REMARK   54  A    between atoms: _143  and  _144
REMARK   55  A    between atoms: _146  and  _148
REMARK   56  A    between atoms: _148  and  _149
REMARK   57  A    between atoms: _151  and  _153
REMARK   58  A    between atoms: _153  and  _154
REMARK   59  A    between atoms: _153  and  _156
REMARK   60  A    between atoms: _156  and  _157
REMARK   61  A    between atoms: _160  and  _162
REMARK   62  A    between atoms: _162  and  _163
REMARK   63  A    between atoms: _162  and  _165
REMARK   64  A    between atoms: _165  and  _166
REMARK   65  A    between atoms: _171  and  _173
REMARK   66  A    between atoms: _173  and  _174
REMARK   67  A    between atoms: _173  and  _176
REMARK   68  A    between atoms: _176  and  _177
REMARK   69  A    between atoms: _180  and  _182
REMARK   70  A    between atoms: _182  and  _183
REMARK   71  A    between atoms: _182  and  _185
REMARK   72  A    between atoms: _185  and  _186
REMARK   73  A    between atoms: _186  and  _187
REMARK   74  A    between atoms: _192  and  _194
REMARK   75  A    between atoms: _194  and  _195
REMARK   76  A    between atoms: _194  and  _197
REMARK   77  A    between atoms: _197  and  _198
REMARK   78  A    between atoms: _201  and  _203
REMARK   79  A    between atoms: _203  and  _204
REMARK   80  A    between atoms: _203  and  _206
REMARK   81  A    between atoms: _206  and  _207
REMARK   82  A    between atoms: _210  and  _212
REMARK   83  A    between atoms: _212  and  _213
REMARK   84  A    between atoms: _212  and  _215
REMARK   85  A    between atoms: _215  and  _216
REMARK   86  A    between atoms: _221  and  _223
REMARK   87  A    between atoms: _223  and  _224
REMARK   88  A    between atoms: _227  and  _229
REMARK   89  A    between atoms: _229  and  _230
REMARK   90  A    between atoms: _232  and  _234
REMARK   91  A    between atoms: _234  and  _235
REMARK   92  A    between atoms: _237  and  _239
REMARK   93  A    between atoms: _239  and  _240
REMARK   94  A    between atoms: _239  and  _242
REMARK   95  A    between atoms: _242  and  _243
REMARK   96  A    between atoms: _246  and  _248
REMARK   97  A    between atoms: _248  and  _249
REMARK   98  A    between atoms: _248  and  _251
REMARK   99  A    between atoms: _251  and  _252
REMARK  100  A    between atoms: _255  and  _257
REMARK  101  A    between atoms: _257  and  _258
REMARK  102  A    between atoms: _257  and  _260
REMARK  103  A    between atoms: _260  and  _261
REMARK  104  A    between atoms: _266  and  _268
REMARK  105  A    between atoms: _268  and  _269
REMARK  106  A    between atoms: _268  and  _271
REMARK  107  A    between atoms: _271  and  _272
REMARK  108  A    between atoms: _272  and  _273
REMARK  109  A    between atoms: _276  and  _278
REMARK  110  A    between atoms: _278  and  _279
REMARK  111  A    between atoms: _278  and  _281
REMARK  112  A    between atoms: _284  and  _286
REMARK  113  A    between atoms: _286  and  _287
REMARK  114  A    between atoms: _286  and  _289
REMARK  115  A    between atoms: _289  and  _290
REMARK  116  A    between atoms: _295  and  _297
REMARK  117  A    between atoms: _297  and  _298
REMARK  118  A    between atoms: _297  and  _300
REMARK  119  A    between atoms: _300  and  _301
REMARK  120  A    between atoms: _304  and  _306
REMARK  121  A    between atoms: _306  and  _307
REMARK  122  A    between atoms: _306  and  _309
REMARK  123  A    between atoms: _309  and  _310
REMARK  124  A    between atoms: _312  and  _314
REMARK  125  A    between atoms: _314  and  _315
REMARK  126  A    between atoms: _314  and  _317
REMARK  127  A    between atoms: _317  and  _318
REMARK  128  A    between atoms: _323  and  _325
REMARK  129  A    between atoms: _325  and  _326
REMARK  130  A    between atoms: _325  and  _328
REMARK  131  A    between atoms: _331  and  _333
REMARK  132  A    between atoms: _333  and  _334
REMARK  133  A    between atoms: _333  and  _336
REMARK  134  A    between atoms: _336  and  _337
REMARK  135  A    between atoms: _342  and  _344
REMARK  136  A    between atoms: _344  and  _345
REMARK  137  A    between atoms: _344  and  _347
REMARK  138  A    between atoms: _347  and  _348
REMARK  139  A    between atoms: _348  and  _349
REMARK  140  A    between atoms: _349  and  _350
REMARK  141  A    between atoms: _359  and  _361
REMARK  142  A    between atoms: _361  and  _362
REMARK  143  A    between atoms: _361  and  _364
REMARK  144  A    between atoms: _364  and  _365
REMARK  145  A    between atoms: _365  and  _366
REMARK  146  A    between atoms: _369  and  _371
REMARK  147  A    between atoms: _371  and  _372
REMARK  148  A    between atoms: _371  and  _374
REMARK  149  A    between atoms: _374  and  _375
REMARK  150  A    between atoms: _381  and  _383
REMARK  151  A    between atoms: _383  and  _384
REMARK  152  A    between atoms: _383  and  _386
REMARK  153  A    between atoms: _386  and  _387
REMARK  154  A    between atoms: _387  and  _388
REMARK  155  A    between atoms: _388  and  _389
REMARK  156  A    between atoms: _398  and  _400
REMARK  157  A    between atoms: _400  and  _401
REMARK  158  A    between atoms: _400  and  _403
REMARK  159  A    between atoms: _403  and  _404
REMARK  160  A    between atoms: _404  and  _405
REMARK  161  A    between atoms: _405  and  _406
REMARK  162  A    between atoms: _415  and  _417
REMARK  163  A    between atoms: _417  and  _418
REMARK  164  A    between atoms: _417  and  _420
REMARK  165  A    between atoms: _420  and  _421
REMARK  166  A    between atoms: _426  and  _428
REMARK  167  A    between atoms: _428  and  _429
REMARK  168  A    between atoms: _428  and  _431
REMARK  169  A    between atoms: _431  and  _432
REMARK  170  A    between atoms: _435  and  _437
REMARK  171  A    between atoms: _437  and  _438
REMARK  172  A    between atoms: _437  and  _440
REMARK  173  A    between atoms: _443  and  _445
REMARK  174  A    between atoms: _445  and  _446
REMARK  175  A    between atoms: _448  and  _450
REMARK  176  A    between atoms: _450  and  _451
REMARK  177  A    between atoms: _450  and  _453
REMARK  178  A    between atoms: _453  and  _454
REMARK  179  A    between atoms: _457  and  _459
REMARK  180  A    between atoms: _459  and  _460
REMARK  181  A    between atoms: _462  and  _464
REMARK  182  A    between atoms: _464  and  _465
REMARK  183  A    between atoms: _464  and  _467
REMARK  184  A    between atoms: _467  and  _468
REMARK  185  A    between atoms: _471  and  _473
REMARK  186  A    between atoms: _473  and  _474
REMARK  187  A    between atoms: _473  and  _476
REMARK  188  A    between atoms: _476  and  _477
REMARK  189  A    between atoms: _482  and  _483
REMARK  190  A    between atoms: _485  and  _487
REMARK  191  A    between atoms: _487  and  _488
REMARK  192  A    between atoms: _487  and  _490
REMARK  193  A    between atoms: _490  and  _491
REMARK  194  A    between atoms: _496  and  _498
REMARK  195  A    between atoms: _498  and  _499
REMARK  196  A    between atoms: _498  and  _501
REMARK  197  A    between atoms: _504  and  _506
REMARK  198  A    between atoms: _506  and  _507
REMARK  199  A    between atoms: _510  and  _512
REMARK  200  A    between atoms: _512  and  _513
REMARK  201  A    between atoms: _512  and  _515
REMARK  202  A    between atoms: _515  and  _516
REMARK  203  A    between atoms: _519  and  _521
REMARK  204  A    between atoms: _521  and  _522
REMARK  205  A    between atoms: _521  and  _524
REMARK  206  A    between atoms: _524  and  _525
REMARK  207  A    between atoms: _525  and  _526
REMARK  208  A    between atoms: _526  and  _527
REMARK  209  A    between atoms: _536  and  _538
REMARK  210  A    between atoms: _538  and  _539
REMARK  211  A    between atoms: _538  and  _541
REMARK  212  A    between atoms: _541  and  _542
REMARK  213  A    between atoms: _545  and  _547
REMARK  214  A    between atoms: _547  and  _548
REMARK  215  A    between atoms: _551  and  _553
REMARK  216  A    between atoms: _553  and  _554
REMARK  217  A    between atoms: _553  and  _556
REMARK  218  A    between atoms: _558  and  _560
REMARK  219  A    between atoms: _560  and  _561
REMARK  220  A    between atoms: _564  and  _566
REMARK  221  A    between atoms: _566  and  _567
REMARK  222  A    between atoms: _566  and  _569
REMARK  223  A    between atoms: _569  and  _570
REMARK  224  A    between atoms: _570  and  _571
REMARK                            x       y       z     vdW  Elec       q    Type
REMARK                         _______ _______ _______ _____ _____    ______ ____
ROOT
ATOM      1  O   HOH     1      22.470  45.777  15.363  0.00  0.00    +0.000 OA
ENDROOT
TORSDOF 0
REMARK  Name = ../refined-set-2016/4b6p/4b6p_pocket.pdb
REMARK  224 active torsions:
REMARK  status: ('A' for Active; 'I' for Inactive)
REMARK    1  A    between atoms: _1  and  _3
REMARK    2  A    between atoms: _3  and  _4
REMARK    3  A    between atoms: _3  and  _6
REMARK    4  A    between atoms: _6  and  _7
REMARK    5  A    between atoms: _12  and  _14
REMARK    6  A    between atoms: _14  and  _15
REMARK    7  A    between atoms: _18  and  _19
REMARK    8  A    between atoms: _24  and  _26
REMARK    9  A    between atoms: _26  and  _27
REMARK   10  A    between atoms: _26  and  _29
REMARK   11  A    between atoms: _29  and  _30
REMARK   12  A    between atoms: _35  and  _37
REMARK   13  A    between atoms: _37  and  _38
REMARK   14  A    between atoms: _37  and  _40
REMARK   15  A    between atoms: _40  and  _41
REMARK   16  A    between atoms: _44  and  _46
REMARK   17  A    between atoms: _46  and  _47
REMARK   18  A    between atoms: _49  and  _51
REMARK   19  A    between atoms: _51  and  _52
REMARK   20  A    between atoms: _51  and  _54
REMARK   21  A    between atoms: _54  and  _55
REMARK   22  A    between atoms: _55  and  _56
REMARK   23  A    between atoms: _56  and  _57
REMARK   24  A    between atoms: _66  and  _68
REMARK   25  A    between atoms: _68  and  _69
REMARK   26  A    between atoms: _68  and  _71
REMARK   27  A    between atoms: _71  and  _72
REMARK   28  A    between atoms: _75  and  _77
REMARK   29  A    between atoms: _77  and  _78
REMARK   30  A    between atoms: _80  and  _82
REMARK   31  A    between atoms: _82  and  _83
REMARK   32  A    between atoms: _82  and  _85
REMARK   33  A    between atoms: _85  and  _86
REMARK   34  A    between atoms: _86  and  _87
REMARK   35  A    between atoms: _87  and  _88
REMARK   36  A    between atoms: _97  and  _99
REMARK   37  A    between atoms: _99  and  _100
REMARK   38  A    between atoms: _99  and  _102
REMARK   39  A    between atoms: _102  and  _103
REMARK   40  A    between atoms: _103  and  _104
REMARK   41  A    between atoms: _104  and  _105
REMARK   42  A    between atoms: _114  and  _116
REMARK   43  A    between atoms: _116  and  _117
REMARK   44  A    between atoms: _116  and  _119
REMARK   45  A    between atoms: _119  and  _120
REMARK   46  A    between atoms: _120  and  _121
REMARK   47  A    between atoms: _124  and  _126
REMARK   48  A    between atoms: _126  and  _127
REMARK   49  A    between atoms: _126  and  _129
REMARK   50  A    between atoms: _132  and  _134
REMARK   51  A    between atoms: _134  and  _135
REMARK   52  A    between atoms: _134  and  _137
REMARK   53  A    between atoms: _137  and  _138
REMARK   54  A    between atoms: _143  and  _144
REMARK   55  A    between atoms: _146  and  _148
REMARK   56  A    between atoms: _148  and  _149
REMARK   57  A    between atoms: _151  and  _153
REMARK   58  A    between atoms: _153  and  _154
REMARK   59  A    between atoms: _153  and  _156
REMARK   60  A    between atoms: _156  and  _157
REMARK   61  A    between atoms: _160  and  _162
REMARK   62  A    between atoms: _162  and  _163
REMARK   63  A    between atoms: _162  and  _165
REMARK   64  A    between atoms: _165  and  _166
REMARK   65  A    between atoms: _171  and  _173
REMARK   66  A    between atoms: _173  and  _174
REMARK   67  A    between atoms: _173  and  _176
REMARK   68  A    between atoms: _176  and  _177
REMARK   69  A    between atoms: _180  and  _182
REMARK   70  A    between atoms: _182  and  _183
REMARK   71  A    between atoms: _182  and  _185
REMARK   72  A    between atoms: _185  and  _186
REMARK   73  A    between atoms: _186  and  _187
REMARK   74  A    between atoms: _192  and  _194
REMARK   75  A    between atoms: _194  and  _195
REMARK   76  A    between atoms: _194  and  _197
REMARK   77  A    between atoms: _197  and  _198
REMARK   78  A    between atoms: _201  and  _203
REMARK   79  A    between atoms: _203  and  _204
REMARK   80  A    between atoms: _203  and  _206
REMARK   81  A    between atoms: _206  and  _207
REMARK   82  A    between atoms: _210  and  _212
REMARK   83  A    between atoms: _212  and  _213
REMARK   84  A    between atoms: _212  and  _215
REMARK   85  A    between atoms: _215  and  _216
REMARK   86  A    between atoms: _221  and  _223
REMARK   87  A    between atoms: _223  and  _224
REMARK   88  A    between atoms: _227  and  _229
REMARK   89  A    between atoms: _229  and  _230
REMARK   90  A    between atoms: _232  and  _234
REMARK   91  A    between atoms: _234  and  _235
REMARK   92  A    between atoms: _237  and  _239
REMARK   93  A    between atoms: _239  and  _240
REMARK   94  A    between atoms: _239  and  _242
REMARK   95  A    between atoms: _242  and  _243
REMARK   96  A    between atoms: _246  and  _248
REMARK   97  A    between atoms: _248  and  _249
REMARK   98  A    between atoms: _248  and  _251
REMARK   99  A    between atoms: _251  and  _252
REMARK  100  A    between atoms: _255  and  _257
REMARK  101  A    between atoms: _257  and  _258
REMARK  102  A    between atoms: _257  and  _260
REMARK  103  A    between atoms: _260  and  _261
REMARK  104  A    between atoms: _266  and  _268
REMARK  105  A    between atoms: _268  and  _269
REMARK  106  A    between atoms: _268  and  _271
REMARK  107  A    between atoms: _271  and  _272
REMARK  108  A    between atoms: _272  and  _273
REMARK  109  A    between atoms: _276  and  _278
REMARK  110  A    between atoms: _278  and  _279
REMARK  111  A    between atoms: _278  and  _281
REMARK  112  A    between atoms: _284  and  _286
REMARK  113  A    between atoms: _286  and  _287
REMARK  114  A    between atoms: _286  and  _289
REMARK  115  A    between atoms: _289  and  _290
REMARK  116  A    between atoms: _295  and  _297
REMARK  117  A    between atoms: _297  and  _298
REMARK  118  A    between atoms: _297  and  _300
REMARK  119  A    between atoms: _300  and  _301
REMARK  120  A    between atoms: _304  and  _306
REMARK  121  A    between atoms: _306  and  _307
REMARK  122  A    between atoms: _306  and  _309
REMARK  123  A    between atoms: _309  and  _310
REMARK  124  A    between atoms: _312  and  _314
REMARK  125  A    between atoms: _314  and  _315
REMARK  126  A    between atoms: _314  and  _317
REMARK  127  A    between atoms: _317  and  _318
REMARK  128  A    between atoms: _323  and  _325
REMARK  129  A    between atoms: _325  and  _326
REMARK  130  A    between atoms: _325  and  _328
REMARK  131  A    between atoms: _331  and  _333
REMARK  132  A    between atoms: _333  and  _334
REMARK  133  A    between atoms: _333  and  _336
REMARK  134  A    between atoms: _336  and  _337
REMARK  135  A    between atoms: _342  and  _344
REMARK  136  A    between atoms: _344  and  _345
REMARK  137  A    between atoms: _344  and  _347
REMARK  138  A    between atoms: _347  and  _348
REMARK  139  A    between atoms: _348  and  _349
REMARK  140  A    between atoms: _349  and  _350
REMARK  141  A    between atoms: _359  and  _361
REMARK  142  A    between atoms: _361  and  _362
REMARK  143  A    between atoms: _361  and  _364
REMARK  144  A    between atoms: _364  and  _365
REMARK  145  A    between atoms: _365  and  _366
REMARK  146  A    between atoms: _369  and  _371
REMARK  147  A    between atoms: _371  and  _372
REMARK  148  A    between atoms: _371  and  _374
REMARK  149  A    between atoms: _374  and  _375
REMARK  150  A    between atoms: _381  and  _383
REMARK  151  A    between atoms: _383  and  _384
REMARK  152  A    between atoms: _383  and  _386
REMARK  153  A    between atoms: _386  and  _387
REMARK  154  A    between atoms: _387  and  _388
REMARK  155  A    between atoms: _388  and  _389
REMARK  156  A    between atoms: _398  and  _400
REMARK  157  A    between atoms: _400  and  _401
REMARK  158  A    between atoms: _400  and  _403
REMARK  159  A    between atoms: _403  and  _404
REMARK  160  A    between atoms: _404  and  _405
REMARK  161  A    between atoms: _405  and  _406
REMARK  162  A    between atoms: _415  and  _417
REMARK  163  A    between atoms: _417  and  _418
REMARK  164  A    between atoms: _417  and  _420
REMARK  165  A    between atoms: _420  and  _421
REMARK  166  A    between atoms: _426  and  _428
REMARK  167  A    between atoms: _428  and  _429
REMARK  168  A    between atoms: _428  and  _431
REMARK  169  A    between atoms: _431  and  _432
REMARK  170  A    between atoms: _435  and  _437
REMARK  171  A    between atoms: _437  and  _438
REMARK  172  A    between atoms: _437  and  _440
REMARK  173  A    between atoms: _443  and  _445
REMARK  174  A    between atoms: _445  and  _446
REMARK  175  A    between atoms: _448  and  _450
REMARK  176  A    between atoms: _450  and  _451
REMARK  177  A    between atoms: _450  and  _453
REMARK  178  A    between atoms: _453  and  _454
REMARK  179  A    between atoms: _457  and  _459
REMARK  180  A    between atoms: _459  and  _460
REMARK  181  A    between atoms: _462  and  _464
REMARK  182  A    between atoms: _464  and  _465
REMARK  183  A    between atoms: _464  and  _467
REMARK  184  A    between atoms: _467  and  _468
REMARK  185  A    between atoms: _471  and  _473
REMARK  186  A    between atoms: _473  and  _474
REMARK  187  A    between atoms: _473  and  _476
REMARK  188  A    between atoms: _476  and  _477
REMARK  189  A    between atoms: _482  and  _483
REMARK  190  A    between atoms: _485  and  _487
REMARK  191  A    between atoms: _487  and  _488
REMARK  192  A    between atoms: _487  and  _490
REMARK  193  A    between atoms: _490  and  _491
REMARK  194  A    between atoms: _496  and  _498
REMARK  195  A    between atoms: _498  and  _499
REMARK  196  A    between atoms: _498  and  _501
REMARK  197  A    between atoms: _504  and  _506
REMARK  198  A    between atoms: _506  and  _507
REMARK  199  A    between atoms: _510  and  _512
REMARK  200  A    between atoms: _512  and  _513
REMARK  201  A    between atoms: _512  and  _515
REMARK  202  A    between atoms: _515  and  _516
REMARK  203  A    between atoms: _519  and  _521
REMARK  204  A    between atoms: _521  and  _522
REMARK  205  A    between atoms: _521  and  _524
REMARK  206  A    between atoms: _524  and  _525
REMARK  207  A    between atoms: _525  and  _526
REMARK  208  A    between atoms: _526  and  _527
REMARK  209  A    between atoms: _536  and  _538
REMARK  210  A    between atoms: _538  and  _539
REMARK  211  A    between atoms: _538  and  _541
REMARK  212  A    between atoms: _541  and  _542
REMARK  213  A    between atoms: _545  and  _547
REMARK  214  A    between atoms: _547  and  _548
REMARK  215  A    between atoms: _551  and  _553
REMARK  216  A    between atoms: _553  and  _554
REMARK  217  A    between atoms: _553  and  _556
REMARK  218  A    between atoms: _558  and  _560
REMARK  219  A    between atoms: _560  and  _561
REMARK  220  A    between atoms: _564  and  _566
REMARK  221  A    between atoms: _566  and  _567
REMARK  222  A    between atoms: _566  and  _569
REMARK  223  A    between atoms: _569  and  _570
REMARK  224  A    between atoms: _570  and  _571
REMARK                            x       y       z     vdW  Elec       q    Type
REMARK                         _______ _______ _______ _____ _____    ______ ____
ROOT
ATOM      1  O   HOH     1      33.101  48.869  15.045  0.00  0.00    +0.000 OA
ENDROOT
TORSDOF 0
