REMARK  Name = ../refined-set-2016/4mo8/4mo8_pocket.pdb
REMARK  145 active torsions:
REMARK  status: ('A' for Active; 'I' for Inactive)
REMARK    1  A    between atoms: _1  and  _3
REMARK    2  A    between atoms: _3  and  _4
REMARK    3  A    between atoms: _3  and  _6
REMARK    4  A    between atoms: _6  and  _7
REMARK    5  A    between atoms: _17  and  _19
REMARK    6  A    between atoms: _19  and  _20
REMARK    7  A    between atoms: _19  and  _22
REMARK    8  A    between atoms: _22  and  _23
REMARK    9  A    between atoms: _28  and  _29
REMARK   10  A    between atoms: _31  and  _33
REMARK   11  A    between atoms: _33  and  _34
REMARK   12  A    between atoms: _33  and  _36
REMARK   13  A    between atoms: _36  and  _37
REMARK   14  A    between atoms: _40  and  _41
REMARK   15  A    between atoms: _46  and  _48
REMARK   16  A    between atoms: _48  and  _49
REMARK   17  A    between atoms: _48  and  _51
REMARK   18  A    between atoms: _51  and  _52
REMARK   19  A    between atoms: _57  and  _59
REMARK   20  A    between atoms: _59  and  _60
REMARK   21  A    between atoms: _59  and  _62
REMARK   22  A    between atoms: _62  and  _63
REMARK   23  A    between atoms: _68  and  _70
REMARK   24  A    between atoms: _70  and  _71
REMARK   25  A    between atoms: _74  and  _76
REMARK   26  A    between atoms: _76  and  _77
REMARK   27  A    between atoms: _76  and  _79
REMARK   28  A    between atoms: _79  and  _80
REMARK   29  A    between atoms: _85  and  _87
REMARK   30  A    between atoms: _87  and  _88
REMARK   31  A    between atoms: _87  and  _90
REMARK   32  A    between atoms: _90  and  _91
REMARK   33  A    between atoms: _94  and  _96
REMARK   34  A    between atoms: _96  and  _97
REMARK   35  A    between atoms: _96  and  _99
REMARK   36  A    between atoms: _99  and  _100
REMARK   37  A    between atoms: _100  and  _101
REMARK   38  A    between atoms: _106  and  _108
REMARK   39  A    between atoms: _108  and  _109
REMARK   40  A    between atoms: _108  and  _111
REMARK   41  A    between atoms: _111  and  _112
REMARK   42  A    between atoms: _118  and  _120
REMARK   43  A    between atoms: _131  and  _134
REMARK   44  A    between atoms: _134  and  _135
REMARK   45  A    between atoms: _143  and  _144
REMARK   46  A    between atoms: _152  and  _154
REMARK   47  A    between atoms: _154  and  _155
REMARK   48  A    between atoms: _154  and  _157
REMARK   49  A    between atoms: _157  and  _158
REMARK   50  A    between atoms: _158  and  _159
REMARK   51  A    between atoms: _162  and  _164
REMARK   52  A    between atoms: _164  and  _165
REMARK   53  A    between atoms: _164  and  _167
REMARK   54  A    between atoms: _167  and  _168
REMARK   55  A    between atoms: _173  and  _175
REMARK   56  A    between atoms: _175  and  _176
REMARK   57  A    between atoms: _175  and  _178
REMARK   58  A    between atoms: _178  and  _179
REMARK   59  A    between atoms: _179  and  _180
REMARK   60  A    between atoms: _183  and  _185
REMARK   61  A    between atoms: _185  and  _186
REMARK   62  A    between atoms: _185  and  _188
REMARK   63  A    between atoms: _188  and  _189
REMARK   64  A    between atoms: _192  and  _194
REMARK   65  A    between atoms: _194  and  _195
REMARK   66  A    between atoms: _194  and  _197
REMARK   67  A    between atoms: _197  and  _198
REMARK   68  A    between atoms: _199  and  ZN_409
REMARK   69  A    between atoms: _203  and  _205
REMARK   70  A    between atoms: _205  and  _206
REMARK   71  A    between atoms: _205  and  _208
REMARK   72  A    between atoms: _208  and  _209
REMARK   73  A    between atoms: _212  and  _214
REMARK   74  A    between atoms: _214  and  _215
REMARK   75  A    between atoms: _214  and  _217
REMARK   76  A    between atoms: _220  and  _222
REMARK   77  A    between atoms: _222  and  _223
REMARK   78  A    between atoms: _222  and  _225
REMARK   79  A    between atoms: _225  and  _226
REMARK   80  A    between atoms: _231  and  _233
REMARK   81  A    between atoms: _233  and  _234
REMARK   82  A    between atoms: _233  and  _236
REMARK   83  A    between atoms: _236  and  _237
REMARK   84  A    between atoms: _243  and  _245
REMARK   85  A    between atoms: _245  and  _246
REMARK   86  A    between atoms: _245  and  _248
REMARK   87  A    between atoms: _251  and  _253
REMARK   88  A    between atoms: _253  and  _254
REMARK   89  A    between atoms: _253  and  _256
REMARK   90  A    between atoms: _256  and  _257
REMARK   91  A    between atoms: _260  and  _262
REMARK   92  A    between atoms: _262  and  _263
REMARK   93  A    between atoms: _266  and  _268
REMARK   94  A    between atoms: _268  and  _269
REMARK   95  A    between atoms: _268  and  _271
REMARK   96  A    between atoms: _274  and  _276
REMARK   97  A    between atoms: _276  and  _277
REMARK   98  A    between atoms: _276  and  _279
REMARK   99  A    between atoms: _279  and  _280
REMARK  100  A    between atoms: _283  and  _285
REMARK  101  A    between atoms: _285  and  _286
REMARK  102  A    between atoms: _285  and  _288
REMARK  103  A    between atoms: _288  and  _289
REMARK  104  A    between atoms: _291  and  _293
REMARK  105  A    between atoms: _293  and  _294
REMARK  106  A    between atoms: _293  and  _296
REMARK  107  A    between atoms: _296  and  _297
REMARK  108  A    between atoms: _300  and  _302
REMARK  109  A    between atoms: _302  and  _303
REMARK  110  A    between atoms: _302  and  _305
REMARK  111  A    between atoms: _305  and  _306
REMARK  112  A    between atoms: _309  and  _311
REMARK  113  A    between atoms: _311  and  _312
REMARK  114  A    between atoms: _311  and  _314
REMARK  115  A    between atoms: _314  and  _315
REMARK  116  A    between atoms: _319  and  _320
REMARK  117  A    between atoms: _326  and  _327
REMARK  118  A    between atoms: _332  and  _334
REMARK  119  A    between atoms: _334  and  _335
REMARK  120  A    between atoms: _334  and  _337
REMARK  121  A    between atoms: _337  and  _338
REMARK  122  A    between atoms: _341  and  _343
REMARK  123  A    between atoms: _343  and  _344
REMARK  124  A    between atoms: _343  and  _346
REMARK  125  A    between atoms: _346  and  _347
REMARK  126  A    between atoms: _350  and  _352
REMARK  127  A    between atoms: _352  and  _353
REMARK  128  A    between atoms: _352  and  _355
REMARK  129  A    between atoms: _357  and  _359
REMARK  130  A    between atoms: _359  and  _360
REMARK  131  A    between atoms: _359  and  _362
REMARK  132  A    between atoms: _365  and  _367
REMARK  133  A    between atoms: _367  and  _368
REMARK  134  A    between atoms: _367  and  _370
REMARK  135  A    between atoms: _370  and  _371
REMARK  136  A    between atoms: _381  and  _383
REMARK  137  A    between atoms: _383  and  _384
REMARK  138  A    between atoms: _383  and  _386
REMARK  139  A    between atoms: _386  and  _387
REMARK  140  A    between atoms: _392  and  _394
REMARK  141  A    between atoms: _394  and  _395
REMARK  142  A    between atoms: _394  and  _397
REMARK  143  A    between atoms: _397  and  _398
REMARK  144  A    between atoms: _398  and  _399
REMARK  145  A    between atoms: _399  and  _400
REMARK                            x       y       z     vdW  Elec       q    Type
REMARK                         _______ _______ _______ _____ _____    ______ ____
ROOT
ATOM      1  CG  TRP A   1       5.900   0.115  12.184  0.00  0.00    -0.002 A 
ATOM      2  CD2 TRP A   1       4.543  -0.339  12.081  0.00  0.00    +0.013 A 
ATOM      3  CE3 TRP A   1       3.920  -1.582  12.259  0.00  0.00    +0.001 A 
ATOM      4  CZ3 TRP A   1       2.539  -1.670  12.077  0.00  0.00    +0.000 A 
ATOM      5  CH2 TRP A   1       1.782  -0.539  11.722  0.00  0.00    +0.001 A 
ATOM      6  CZ2 TRP A   1       2.372   0.689  11.540  0.00  0.00    +0.017 A 
ATOM      7  CE2 TRP A   1       3.754   0.777  11.722  0.00  0.00    +0.056 A 
ATOM      8  NE1 TRP A   1       4.594   1.859  11.609  0.00  0.00    -0.352 N 
ATOM      9  HE1 TRP A   1       4.303   2.824  11.354  0.00  0.00    +0.166 HD
ATOM     10  CD1 TRP A   1       5.882   1.461  11.887  0.00  0.00    +0.068 A 
ENDROOT
BRANCH   1  11
ATOM     11  CB  TRP A   1       7.079  -0.719  12.536  0.00  0.00    +0.053 C 
BRANCH  11  12
ATOM     12  CA  TRP A   1       7.759  -1.354  11.318  0.00  0.00    +0.137 C 
BRANCH  12  13
ATOM     13  N   TRP A   1       8.429  -0.342  10.502  0.00  0.00    -0.239 NA
ATOM     14  H   TRP A   1       8.207   0.666  10.631  0.00  0.00    +0.142 HD
ENDBRANCH  12  13
BRANCH  12  15
ATOM     15  C   TRP A   1       6.743  -2.165  10.546  0.00  0.00    +0.224 C 
ATOM     16  O   TRP A   1       6.174  -1.700   9.550  0.00  0.00    -0.287 OA
ENDBRANCH  12  15
ENDBRANCH  11  12
ENDBRANCH   1  11
TORSDOF 4
REMARK  Name = ../refined-set-2016/4mo8/4mo8_pocket.pdb
REMARK  145 active torsions:
REMARK  status: ('A' for Active; 'I' for Inactive)
REMARK    1  A    between atoms: _1  and  _3
REMARK    2  A    between atoms: _3  and  _4
REMARK    3  A    between atoms: _3  and  _6
REMARK    4  A    between atoms: _6  and  _7
REMARK    5  A    between atoms: _17  and  _19
REMARK    6  A    between atoms: _19  and  _20
REMARK    7  A    between atoms: _19  and  _22
REMARK    8  A    between atoms: _22  and  _23
REMARK    9  A    between atoms: _28  and  _29
REMARK   10  A    between atoms: _31  and  _33
REMARK   11  A    between atoms: _33  and  _34
REMARK   12  A    between atoms: _33  and  _36
REMARK   13  A    between atoms: _36  and  _37
REMARK   14  A    between atoms: _40  and  _41
REMARK   15  A    between atoms: _46  and  _48
REMARK   16  A    between atoms: _48  and  _49
REMARK   17  A    between atoms: _48  and  _51
REMARK   18  A    between atoms: _51  and  _52
REMARK   19  A    between atoms: _57  and  _59
REMARK   20  A    between atoms: _59  and  _60
REMARK   21  A    between atoms: _59  and  _62
REMARK   22  A    between atoms: _62  and  _63
REMARK   23  A    between atoms: _68  and  _70
REMARK   24  A    between atoms: _70  and  _71
REMARK   25  A    between atoms: _74  and  _76
REMARK   26  A    between atoms: _76  and  _77
REMARK   27  A    between atoms: _76  and  _79
REMARK   28  A    between atoms: _79  and  _80
REMARK   29  A    between atoms: _85  and  _87
REMARK   30  A    between atoms: _87  and  _88
REMARK   31  A    between atoms: _87  and  _90
REMARK   32  A    between atoms: _90  and  _91
REMARK   33  A    between atoms: _94  and  _96
REMARK   34  A    between atoms: _96  and  _97
REMARK   35  A    between atoms: _96  and  _99
REMARK   36  A    between atoms: _99  and  _100
REMARK   37  A    between atoms: _100  and  _101
REMARK   38  A    between atoms: _106  and  _108
REMARK   39  A    between atoms: _108  and  _109
REMARK   40  A    between atoms: _108  and  _111
REMARK   41  A    between atoms: _111  and  _112
REMARK   42  A    between atoms: _118  and  _120
REMARK   43  A    between atoms: _131  and  _134
REMARK   44  A    between atoms: _134  and  _135
REMARK   45  A    between atoms: _143  and  _144
REMARK   46  A    between atoms: _152  and  _154
REMARK   47  A    between atoms: _154  and  _155
REMARK   48  A    between atoms: _154  and  _157
REMARK   49  A    between atoms: _157  and  _158
REMARK   50  A    between atoms: _158  and  _159
REMARK   51  A    between atoms: _162  and  _164
REMARK   52  A    between atoms: _164  and  _165
REMARK   53  A    between atoms: _164  and  _167
REMARK   54  A    between atoms: _167  and  _168
REMARK   55  A    between atoms: _173  and  _175
REMARK   56  A    between atoms: _175  and  _176
REMARK   57  A    between atoms: _175  and  _178
REMARK   58  A    between atoms: _178  and  _179
REMARK   59  A    between atoms: _179  and  _180
REMARK   60  A    between atoms: _183  and  _185
REMARK   61  A    between atoms: _185  and  _186
REMARK   62  A    between atoms: _185  and  _188
REMARK   63  A    between atoms: _188  and  _189
REMARK   64  A    between atoms: _192  and  _194
REMARK   65  A    between atoms: _194  and  _195
REMARK   66  A    between atoms: _194  and  _197
REMARK   67  A    between atoms: _197  and  _198
REMARK   68  A    between atoms: _199  and  ZN_409
REMARK   69  A    between atoms: _203  and  _205
REMARK   70  A    between atoms: _205  and  _206
REMARK   71  A    between atoms: _205  and  _208
REMARK   72  A    between atoms: _208  and  _209
REMARK   73  A    between atoms: _212  and  _214
REMARK   74  A    between atoms: _214  and  _215
REMARK   75  A    between atoms: _214  and  _217
REMARK   76  A    between atoms: _220  and  _222
REMARK   77  A    between atoms: _222  and  _223
REMARK   78  A    between atoms: _222  and  _225
REMARK   79  A    between atoms: _225  and  _226
REMARK   80  A    between atoms: _231  and  _233
REMARK   81  A    between atoms: _233  and  _234
REMARK   82  A    between atoms: _233  and  _236
REMARK   83  A    between atoms: _236  and  _237
REMARK   84  A    between atoms: _243  and  _245
REMARK   85  A    between atoms: _245  and  _246
REMARK   86  A    between atoms: _245  and  _248
REMARK   87  A    between atoms: _251  and  _253
REMARK   88  A    between atoms: _253  and  _254
REMARK   89  A    between atoms: _253  and  _256
REMARK   90  A    between atoms: _256  and  _257
REMARK   91  A    between atoms: _260  and  _262
REMARK   92  A    between atoms: _262  and  _263
REMARK   93  A    between atoms: _266  and  _268
REMARK   94  A    between atoms: _268  and  _269
REMARK   95  A    between atoms: _268  and  _271
REMARK   96  A    between atoms: _274  and  _276
REMARK   97  A    between atoms: _276  and  _277
REMARK   98  A    between atoms: _276  and  _279
REMARK   99  A    between atoms: _279  and  _280
REMARK  100  A    between atoms: _283  and  _285
REMARK  101  A    between atoms: _285  and  _286
REMARK  102  A    between atoms: _285  and  _288
REMARK  103  A    between atoms: _288  and  _289
REMARK  104  A    between atoms: _291  and  _293
REMARK  105  A    between atoms: _293  and  _294
REMARK  106  A    between atoms: _293  and  _296
REMARK  107  A    between atoms: _296  and  _297
REMARK  108  A    between atoms: _300  and  _302
REMARK  109  A    between atoms: _302  and  _303
REMARK  110  A    between atoms: _302  and  _305
REMARK  111  A    between atoms: _305  and  _306
REMARK  112  A    between atoms: _309  and  _311
REMARK  113  A    between atoms: _311  and  _312
REMARK  114  A    between atoms: _311  and  _314
REMARK  115  A    between atoms: _314  and  _315
REMARK  116  A    between atoms: _319  and  _320
REMARK  117  A    between atoms: _326  and  _327
REMARK  118  A    between atoms: _332  and  _334
REMARK  119  A    between atoms: _334  and  _335
REMARK  120  A    between atoms: _334  and  _337
REMARK  121  A    between atoms: _337  and  _338
REMARK  122  A    between atoms: _341  and  _343
REMARK  123  A    between atoms: _343  and  _344
REMARK  124  A    between atoms: _343  and  _346
REMARK  125  A    between atoms: _346  and  _347
REMARK  126  A    between atoms: _350  and  _352
REMARK  127  A    between atoms: _352  and  _353
REMARK  128  A    between atoms: _352  and  _355
REMARK  129  A    between atoms: _357  and  _359
REMARK  130  A    between atoms: _359  and  _360
REMARK  131  A    between atoms: _359  and  _362
REMARK  132  A    between atoms: _365  and  _367
REMARK  133  A    between atoms: _367  and  _368
REMARK  134  A    between atoms: _367  and  _370
REMARK  135  A    between atoms: _370  and  _371
REMARK  136  A    between atoms: _381  and  _383
REMARK  137  A    between atoms: _383  and  _384
REMARK  138  A    between atoms: _383  and  _386
REMARK  139  A    between atoms: _386  and  _387
REMARK  140  A    between atoms: _392  and  _394
REMARK  141  A    between atoms: _394  and  _395
REMARK  142  A    between atoms: _394  and  _397
REMARK  143  A    between atoms: _397  and  _398
REMARK  144  A    between atoms: _398  and  _399
REMARK  145  A    between atoms: _399  and  _400
REMARK                            x       y       z     vdW  Elec       q    Type
REMARK                         _______ _______ _______ _____ _____    ______ ____
ROOT
ATOM      1  CG  TYR A   1       2.068  -6.921  11.888  0.00  0.00    -0.020 A 
ATOM      2  CD2 TYR A   1       1.674  -6.911  13.225  0.00  0.00    -0.001 A 
ATOM      3  CE2 TYR A   1       0.799  -5.912  13.716  0.00  0.00    +0.036 A 
ATOM      4  CZ  TYR A   1       0.338  -4.932  12.857  0.00  0.00    +0.134 A 
ATOM      5  CE1 TYR A   1       0.735  -4.925  11.518  0.00  0.00    +0.036 A 
ATOM      6  CD1 TYR A   1       1.589  -5.915  11.049  0.00  0.00    -0.001 A 
ENDROOT
BRANCH   4   7
ATOM      7  OH  TYR A   1      -0.535  -3.969  13.313  0.00  0.00    -0.506 OA
ATOM      8  HH  TYR A   1      -0.712  -4.115  14.276  0.00  0.00    +0.292 HD
ENDBRANCH   4   7
BRANCH   1   9
ATOM      9  CB  TYR A   1       2.977  -8.007  11.347  0.00  0.00    +0.051 C 
BRANCH   9  10
ATOM     10  CA  TYR A   1       4.465  -7.699  11.509  0.00  0.00    +0.137 C 
BRANCH  10  11
ATOM     11  N   TYR A   1       4.828  -6.537  10.697  0.00  0.00    -0.239 NA
ATOM     12  H   TYR A   1       4.821  -6.609   9.659  0.00  0.00    +0.142 HD
ENDBRANCH  10  11
BRANCH  10  13
ATOM     13  C   TYR A   1       5.300  -8.937  11.170  0.00  0.00    +0.224 C 
ATOM     14  O   TYR A   1       4.930 -10.059  11.520  0.00  0.00    -0.287 OA
ENDBRANCH  10  13
ENDBRANCH   9  10
ENDBRANCH   1   9
TORSDOF 5
REMARK  Name = ../refined-set-2016/4mo8/4mo8_pocket.pdb
REMARK  145 active torsions:
REMARK  status: ('A' for Active; 'I' for Inactive)
REMARK    1  A    between atoms: _1  and  _3
REMARK    2  A    between atoms: _3  and  _4
REMARK    3  A    between atoms: _3  and  _6
REMARK    4  A    between atoms: _6  and  _7
REMARK    5  A    between atoms: _17  and  _19
REMARK    6  A    between atoms: _19  and  _20
REMARK    7  A    between atoms: _19  and  _22
REMARK    8  A    between atoms: _22  and  _23
REMARK    9  A    between atoms: _28  and  _29
REMARK   10  A    between atoms: _31  and  _33
REMARK   11  A    between atoms: _33  and  _34
REMARK   12  A    between atoms: _33  and  _36
REMARK   13  A    between atoms: _36  and  _37
REMARK   14  A    between atoms: _40  and  _41
REMARK   15  A    between atoms: _46  and  _48
REMARK   16  A    between atoms: _48  and  _49
REMARK   17  A    between atoms: _48  and  _51
REMARK   18  A    between atoms: _51  and  _52
REMARK   19  A    between atoms: _57  and  _59
REMARK   20  A    between atoms: _59  and  _60
REMARK   21  A    between atoms: _59  and  _62
REMARK   22  A    between atoms: _62  and  _63
REMARK   23  A    between atoms: _68  and  _70
REMARK   24  A    between atoms: _70  and  _71
REMARK   25  A    between atoms: _74  and  _76
REMARK   26  A    between atoms: _76  and  _77
REMARK   27  A    between atoms: _76  and  _79
REMARK   28  A    between atoms: _79  and  _80
REMARK   29  A    between atoms: _85  and  _87
REMARK   30  A    between atoms: _87  and  _88
REMARK   31  A    between atoms: _87  and  _90
REMARK   32  A    between atoms: _90  and  _91
REMARK   33  A    between atoms: _94  and  _96
REMARK   34  A    between atoms: _96  and  _97
REMARK   35  A    between atoms: _96  and  _99
REMARK   36  A    between atoms: _99  and  _100
REMARK   37  A    between atoms: _100  and  _101
REMARK   38  A    between atoms: _106  and  _108
REMARK   39  A    between atoms: _108  and  _109
REMARK   40  A    between atoms: _108  and  _111
REMARK   41  A    between atoms: _111  and  _112
REMARK   42  A    between atoms: _118  and  _120
REMARK   43  A    between atoms: _131  and  _134
REMARK   44  A    between atoms: _134  and  _135
REMARK   45  A    between atoms: _143  and  _144
REMARK   46  A    between atoms: _152  and  _154
REMARK   47  A    between atoms: _154  and  _155
REMARK   48  A    between atoms: _154  and  _157
REMARK   49  A    between atoms: _157  and  _158
REMARK   50  A    between atoms: _158  and  _159
REMARK   51  A    between atoms: _162  and  _164
REMARK   52  A    between atoms: _164  and  _165
REMARK   53  A    between atoms: _164  and  _167
REMARK   54  A    between atoms: _167  and  _168
REMARK   55  A    between atoms: _173  and  _175
REMARK   56  A    between atoms: _175  and  _176
REMARK   57  A    between atoms: _175  and  _178
REMARK   58  A    between atoms: _178  and  _179
REMARK   59  A    between atoms: _179  and  _180
REMARK   60  A    between atoms: _183  and  _185
REMARK   61  A    between atoms: _185  and  _186
REMARK   62  A    between atoms: _185  and  _188
REMARK   63  A    between atoms: _188  and  _189
REMARK   64  A    between atoms: _192  and  _194
REMARK   65  A    between atoms: _194  and  _195
REMARK   66  A    between atoms: _194  and  _197
REMARK   67  A    between atoms: _197  and  _198
REMARK   68  A    between atoms: _199  and  ZN_409
REMARK   69  A    between atoms: _203  and  _205
REMARK   70  A    between atoms: _205  and  _206
REMARK   71  A    between atoms: _205  and  _208
REMARK   72  A    between atoms: _208  and  _209
REMARK   73  A    between atoms: _212  and  _214
REMARK   74  A    between atoms: _214  and  _215
REMARK   75  A    between atoms: _214  and  _217
REMARK   76  A    between atoms: _220  and  _222
REMARK   77  A    between atoms: _222  and  _223
REMARK   78  A    between atoms: _222  and  _225
REMARK   79  A    between atoms: _225  and  _226
REMARK   80  A    between atoms: _231  and  _233
REMARK   81  A    between atoms: _233  and  _234
REMARK   82  A    between atoms: _233  and  _236
REMARK   83  A    between atoms: _236  and  _237
REMARK   84  A    between atoms: _243  and  _245
REMARK   85  A    between atoms: _245  and  _246
REMARK   86  A    between atoms: _245  and  _248
REMARK   87  A    between atoms: _251  and  _253
REMARK   88  A    between atoms: _253  and  _254
REMARK   89  A    between atoms: _253  and  _256
REMARK   90  A    between atoms: _256  and  _257
REMARK   91  A    between atoms: _260  and  _262
REMARK   92  A    between atoms: _262  and  _263
REMARK   93  A    between atoms: _266  and  _268
REMARK   94  A    between atoms: _268  and  _269
REMARK   95  A    between atoms: _268  and  _271
REMARK   96  A    between atoms: _274  and  _276
REMARK   97  A    between atoms: _276  and  _277
REMARK   98  A    between atoms: _276  and  _279
REMARK   99  A    between atoms: _279  and  _280
REMARK  100  A    between atoms: _283  and  _285
REMARK  101  A    between atoms: _285  and  _286
REMARK  102  A    between atoms: _285  and  _288
REMARK  103  A    between atoms: _288  and  _289
REMARK  104  A    between atoms: _291  and  _293
REMARK  105  A    between atoms: _293  and  _294
REMARK  106  A    between atoms: _293  and  _296
REMARK  107  A    between atoms: _296  and  _297
REMARK  108  A    between atoms: _300  and  _302
REMARK  109  A    between atoms: _302  and  _303
REMARK  110  A    between atoms: _302  and  _305
REMARK  111  A    between atoms: _305  and  _306
REMARK  112  A    between atoms: _309  and  _311
REMARK  113  A    between atoms: _311  and  _312
REMARK  114  A    between atoms: _311  and  _314
REMARK  115  A    between atoms: _314  and  _315
REMARK  116  A    between atoms: _319  and  _320
REMARK  117  A    between atoms: _326  and  _327
REMARK  118  A    between atoms: _332  and  _334
REMARK  119  A    between atoms: _334  and  _335
REMARK  120  A    between atoms: _334  and  _337
REMARK  121  A    between atoms: _337  and  _338
REMARK  122  A    between atoms: _341  and  _343
REMARK  123  A    between atoms: _343  and  _344
REMARK  124  A    between atoms: _343  and  _346
REMARK  125  A    between atoms: _346  and  _347
REMARK  126  A    between atoms: _350  and  _352
REMARK  127  A    between atoms: _352  and  _353
REMARK  128  A    between atoms: _352  and  _355
REMARK  129  A    between atoms: _357  and  _359
REMARK  130  A    between atoms: _359  and  _360
REMARK  131  A    between atoms: _359  and  _362
REMARK  132  A    between atoms: _365  and  _367
REMARK  133  A    between atoms: _367  and  _368
REMARK  134  A    between atoms: _367  and  _370
REMARK  135  A    between atoms: _370  and  _371
REMARK  136  A    between atoms: _381  and  _383
REMARK  137  A    between atoms: _383  and  _384
REMARK  138  A    between atoms: _383  and  _386
REMARK  139  A    between atoms: _386  and  _387
REMARK  140  A    between atoms: _392  and  _394
REMARK  141  A    between atoms: _394  and  _395
REMARK  142  A    between atoms: _394  and  _397
REMARK  143  A    between atoms: _397  and  _398
REMARK  144  A    between atoms: _398  and  _399
REMARK  145  A    between atoms: _399  and  _400
REMARK                            x       y       z     vdW  Elec       q    Type
REMARK                         _______ _______ _______ _____ _____    ______ ____
ROOT
ATOM      1  C   SER A   1      -2.162  -3.081  23.209  0.00  0.00    +0.244 C 
ATOM      2  N   PRO A   2      -2.793  -4.230  22.942  0.00  0.00    -0.273 N 
ATOM      3  CA  PRO A   2      -3.961  -4.777  23.638  0.00  0.00    +0.140 C 
ATOM      4  CB  PRO A   2      -4.507  -5.778  22.643  0.00  0.00    +0.030 C 
ATOM      5  CG  PRO A   2      -3.208  -6.386  22.075  0.00  0.00    +0.024 C 
ATOM      6  CD  PRO A   2      -2.365  -5.110  21.836  0.00  0.00    +0.094 C 
ATOM      7  O   SER A   1      -1.198  -2.701  22.549  0.00  0.00    -0.273 OA
ENDROOT
BRANCH   3   8
ATOM      8  C   PRO A   2      -3.567  -5.460  24.939  0.00  0.00    +0.227 C 
ATOM      9  O   PRO A   2      -2.387  -5.500  25.277  0.00  0.00    -0.286 OA
ENDBRANCH   3   8
BRANCH   1  10
ATOM     10  CA  SER A   1      -2.704  -2.241  24.352  0.00  0.00    +0.175 C 
BRANCH  10  11
ATOM     11  N   SER A   1      -1.641  -1.360  24.828  0.00  0.00    -0.236 NA
ATOM     12  H   SER A   1      -1.163  -0.744  24.140  0.00  0.00    +0.142 HD
ENDBRANCH  10  11
BRANCH  10  13
ATOM     13  CB  SER A   1      -3.907  -1.426  23.845  0.00  0.00    +0.163 C 
BRANCH  13  14
ATOM     14  OG  SER A   1      -4.510  -0.702  24.907  0.00  0.00    -0.380 OA
ATOM     15  H   SER A   1      -4.823  -1.335  25.601  0.00  0.00    +0.211 HD
ENDBRANCH  13  14
ENDBRANCH  10  13
ENDBRANCH   1  10
TORSDOF 5
REMARK  Name = ../refined-set-2016/4mo8/4mo8_pocket.pdb
REMARK  145 active torsions:
REMARK  status: ('A' for Active; 'I' for Inactive)
REMARK    1  A    between atoms: _1  and  _3
REMARK    2  A    between atoms: _3  and  _4
REMARK    3  A    between atoms: _3  and  _6
REMARK    4  A    between atoms: _6  and  _7
REMARK    5  A    between atoms: _17  and  _19
REMARK    6  A    between atoms: _19  and  _20
REMARK    7  A    between atoms: _19  and  _22
REMARK    8  A    between atoms: _22  and  _23
REMARK    9  A    between atoms: _28  and  _29
REMARK   10  A    between atoms: _31  and  _33
REMARK   11  A    between atoms: _33  and  _34
REMARK   12  A    between atoms: _33  and  _36
REMARK   13  A    between atoms: _36  and  _37
REMARK   14  A    between atoms: _40  and  _41
REMARK   15  A    between atoms: _46  and  _48
REMARK   16  A    between atoms: _48  and  _49
REMARK   17  A    between atoms: _48  and  _51
REMARK   18  A    between atoms: _51  and  _52
REMARK   19  A    between atoms: _57  and  _59
REMARK   20  A    between atoms: _59  and  _60
REMARK   21  A    between atoms: _59  and  _62
REMARK   22  A    between atoms: _62  and  _63
REMARK   23  A    between atoms: _68  and  _70
REMARK   24  A    between atoms: _70  and  _71
REMARK   25  A    between atoms: _74  and  _76
REMARK   26  A    between atoms: _76  and  _77
REMARK   27  A    between atoms: _76  and  _79
REMARK   28  A    between atoms: _79  and  _80
REMARK   29  A    between atoms: _85  and  _87
REMARK   30  A    between atoms: _87  and  _88
REMARK   31  A    between atoms: _87  and  _90
REMARK   32  A    between atoms: _90  and  _91
REMARK   33  A    between atoms: _94  and  _96
REMARK   34  A    between atoms: _96  and  _97
REMARK   35  A    between atoms: _96  and  _99
REMARK   36  A    between atoms: _99  and  _100
REMARK   37  A    between atoms: _100  and  _101
REMARK   38  A    between atoms: _106  and  _108
REMARK   39  A    between atoms: _108  and  _109
REMARK   40  A    between atoms: _108  and  _111
REMARK   41  A    between atoms: _111  and  _112
REMARK   42  A    between atoms: _118  and  _120
REMARK   43  A    between atoms: _131  and  _134
REMARK   44  A    between atoms: _134  and  _135
REMARK   45  A    between atoms: _143  and  _144
REMARK   46  A    between atoms: _152  and  _154
REMARK   47  A    between atoms: _154  and  _155
REMARK   48  A    between atoms: _154  and  _157
REMARK   49  A    between atoms: _157  and  _158
REMARK   50  A    between atoms: _158  and  _159
REMARK   51  A    between atoms: _162  and  _164
REMARK   52  A    between atoms: _164  and  _165
REMARK   53  A    between atoms: _164  and  _167
REMARK   54  A    between atoms: _167  and  _168
REMARK   55  A    between atoms: _173  and  _175
REMARK   56  A    between atoms: _175  and  _176
REMARK   57  A    between atoms: _175  and  _178
REMARK   58  A    between atoms: _178  and  _179
REMARK   59  A    between atoms: _179  and  _180
REMARK   60  A    between atoms: _183  and  _185
REMARK   61  A    between atoms: _185  and  _186
REMARK   62  A    between atoms: _185  and  _188
REMARK   63  A    between atoms: _188  and  _189
REMARK   64  A    between atoms: _192  and  _194
REMARK   65  A    between atoms: _194  and  _195
REMARK   66  A    between atoms: _194  and  _197
REMARK   67  A    between atoms: _197  and  _198
REMARK   68  A    between atoms: _199  and  ZN_409
REMARK   69  A    between atoms: _203  and  _205
REMARK   70  A    between atoms: _205  and  _206
REMARK   71  A    between atoms: _205  and  _208
REMARK   72  A    between atoms: _208  and  _209
REMARK   73  A    between atoms: _212  and  _214
REMARK   74  A    between atoms: _214  and  _215
REMARK   75  A    between atoms: _214  and  _217
REMARK   76  A    between atoms: _220  and  _222
REMARK   77  A    between atoms: _222  and  _223
REMARK   78  A    between atoms: _222  and  _225
REMARK   79  A    between atoms: _225  and  _226
REMARK   80  A    between atoms: _231  and  _233
REMARK   81  A    between atoms: _233  and  _234
REMARK   82  A    between atoms: _233  and  _236
REMARK   83  A    between atoms: _236  and  _237
REMARK   84  A    between atoms: _243  and  _245
REMARK   85  A    between atoms: _245  and  _246
REMARK   86  A    between atoms: _245  and  _248
REMARK   87  A    between atoms: _251  and  _253
REMARK   88  A    between atoms: _253  and  _254
REMARK   89  A    between atoms: _253  and  _256
REMARK   90  A    between atoms: _256  and  _257
REMARK   91  A    between atoms: _260  and  _262
REMARK   92  A    between atoms: _262  and  _263
REMARK   93  A    between atoms: _266  and  _268
REMARK   94  A    between atoms: _268  and  _269
REMARK   95  A    between atoms: _268  and  _271
REMARK   96  A    between atoms: _274  and  _276
REMARK   97  A    between atoms: _276  and  _277
REMARK   98  A    between atoms: _276  and  _279
REMARK   99  A    between atoms: _279  and  _280
REMARK  100  A    between atoms: _283  and  _285
REMARK  101  A    between atoms: _285  and  _286
REMARK  102  A    between atoms: _285  and  _288
REMARK  103  A    between atoms: _288  and  _289
REMARK  104  A    between atoms: _291  and  _293
REMARK  105  A    between atoms: _293  and  _294
REMARK  106  A    between atoms: _293  and  _296
REMARK  107  A    between atoms: _296  and  _297
REMARK  108  A    between atoms: _300  and  _302
REMARK  109  A    between atoms: _302  and  _303
REMARK  110  A    between atoms: _302  and  _305
REMARK  111  A    between atoms: _305  and  _306
REMARK  112  A    between atoms: _309  and  _311
REMARK  113  A    between atoms: _311  and  _312
REMARK  114  A    between atoms: _311  and  _314
REMARK  115  A    between atoms: _314  and  _315
REMARK  116  A    between atoms: _319  and  _320
REMARK  117  A    between atoms: _326  and  _327
REMARK  118  A    between atoms: _332  and  _334
REMARK  119  A    between atoms: _334  and  _335
REMARK  120  A    between atoms: _334  and  _337
REMARK  121  A    between atoms: _337  and  _338
REMARK  122  A    between atoms: _341  and  _343
REMARK  123  A    between atoms: _343  and  _344
REMARK  124  A    between atoms: _343  and  _346
REMARK  125  A    between atoms: _346  and  _347
REMARK  126  A    between atoms: _350  and  _352
REMARK  127  A    between atoms: _352  and  _353
REMARK  128  A    between atoms: _352  and  _355
REMARK  129  A    between atoms: _357  and  _359
REMARK  130  A    between atoms: _359  and  _360
REMARK  131  A    between atoms: _359  and  _362
REMARK  132  A    between atoms: _365  and  _367
REMARK  133  A    between atoms: _367  and  _368
REMARK  134  A    between atoms: _367  and  _370
REMARK  135  A    between atoms: _370  and  _371
REMARK  136  A    between atoms: _381  and  _383
REMARK  137  A    between atoms: _383  and  _384
REMARK  138  A    between atoms: _383  and  _386
REMARK  139  A    between atoms: _386  and  _387
REMARK  140  A    between atoms: _392  and  _394
REMARK  141  A    between atoms: _394  and  _395
REMARK  142  A    between atoms: _394  and  _397
REMARK  143  A    between atoms: _397  and  _398
REMARK  144  A    between atoms: _398  and  _399
REMARK  145  A    between atoms: _399  and  _400
REMARK                            x       y       z     vdW  Elec       q    Type
REMARK                         _______ _______ _______ _____ _____    ______ ____
ROOT
ATOM      1  CB  ASN A   1      -2.498   1.937   5.187  0.00  0.00    +0.110 C 
ENDROOT
BRANCH   1   2
ATOM      2  CG  ASN A   1      -2.746   1.076   6.421  0.00  0.00    +0.221 C 
ATOM      3  ND2 ASN A   1      -3.131   1.710   7.512  0.00  0.00    -0.329 N 
ATOM      4 HD21 ASN A   1      -3.303   1.178   8.389  0.00  0.00    +0.145 HD
ATOM      5 HD22 ASN A   1      -3.263   2.741   7.495  0.00  0.00    +0.145 HD
ATOM      6  OD1 ASN A   1      -2.576  -0.140   6.388  0.00  0.00    -0.275 OA
ENDBRANCH   1   2
BRANCH   1   7
ATOM      7  CA  ASN A   1      -2.151   1.097   3.942  0.00  0.00    +0.142 C 
BRANCH   7   8
ATOM      8  N   ASN A   1      -3.293   0.262   3.565  0.00  0.00    -0.239 NA
ATOM      9  H   ASN A   1      -3.828  -0.256   4.291  0.00  0.00    +0.142 HD
ENDBRANCH   7   8
BRANCH   7  10
ATOM     10  C   ASN A   1      -0.861   0.327   4.186  0.00  0.00    +0.225 C 
ATOM     11  O   ASN A   1       0.103   0.876   4.707  0.00  0.00    -0.287 OA
ENDBRANCH   7  10
ENDBRANCH   1   7
TORSDOF 4
REMARK  Name = ../refined-set-2016/4mo8/4mo8_pocket.pdb
REMARK  145 active torsions:
REMARK  status: ('A' for Active; 'I' for Inactive)
REMARK    1  A    between atoms: _1  and  _3
REMARK    2  A    between atoms: _3  and  _4
REMARK    3  A    between atoms: _3  and  _6
REMARK    4  A    between atoms: _6  and  _7
REMARK    5  A    between atoms: _17  and  _19
REMARK    6  A    between atoms: _19  and  _20
REMARK    7  A    between atoms: _19  and  _22
REMARK    8  A    between atoms: _22  and  _23
REMARK    9  A    between atoms: _28  and  _29
REMARK   10  A    between atoms: _31  and  _33
REMARK   11  A    between atoms: _33  and  _34
REMARK   12  A    between atoms: _33  and  _36
REMARK   13  A    between atoms: _36  and  _37
REMARK   14  A    between atoms: _40  and  _41
REMARK   15  A    between atoms: _46  and  _48
REMARK   16  A    between atoms: _48  and  _49
REMARK   17  A    between atoms: _48  and  _51
REMARK   18  A    between atoms: _51  and  _52
REMARK   19  A    between atoms: _57  and  _59
REMARK   20  A    between atoms: _59  and  _60
REMARK   21  A    between atoms: _59  and  _62
REMARK   22  A    between atoms: _62  and  _63
REMARK   23  A    between atoms: _68  and  _70
REMARK   24  A    between atoms: _70  and  _71
REMARK   25  A    between atoms: _74  and  _76
REMARK   26  A    between atoms: _76  and  _77
REMARK   27  A    between atoms: _76  and  _79
REMARK   28  A    between atoms: _79  and  _80
REMARK   29  A    between atoms: _85  and  _87
REMARK   30  A    between atoms: _87  and  _88
REMARK   31  A    between atoms: _87  and  _90
REMARK   32  A    between atoms: _90  and  _91
REMARK   33  A    between atoms: _94  and  _96
REMARK   34  A    between atoms: _96  and  _97
REMARK   35  A    between atoms: _96  and  _99
REMARK   36  A    between atoms: _99  and  _100
REMARK   37  A    between atoms: _100  and  _101
REMARK   38  A    between atoms: _106  and  _108
REMARK   39  A    between atoms: _108  and  _109
REMARK   40  A    between atoms: _108  and  _111
REMARK   41  A    between atoms: _111  and  _112
REMARK   42  A    between atoms: _118  and  _120
REMARK   43  A    between atoms: _131  and  _134
REMARK   44  A    between atoms: _134  and  _135
REMARK   45  A    between atoms: _143  and  _144
REMARK   46  A    between atoms: _152  and  _154
REMARK   47  A    between atoms: _154  and  _155
REMARK   48  A    between atoms: _154  and  _157
REMARK   49  A    between atoms: _157  and  _158
REMARK   50  A    between atoms: _158  and  _159
REMARK   51  A    between atoms: _162  and  _164
REMARK   52  A    between atoms: _164  and  _165
REMARK   53  A    between atoms: _164  and  _167
REMARK   54  A    between atoms: _167  and  _168
REMARK   55  A    between atoms: _173  and  _175
REMARK   56  A    between atoms: _175  and  _176
REMARK   57  A    between atoms: _175  and  _178
REMARK   58  A    between atoms: _178  and  _179
REMARK   59  A    between atoms: _179  and  _180
REMARK   60  A    between atoms: _183  and  _185
REMARK   61  A    between atoms: _185  and  _186
REMARK   62  A    between atoms: _185  and  _188
REMARK   63  A    between atoms: _188  and  _189
REMARK   64  A    between atoms: _192  and  _194
REMARK   65  A    between atoms: _194  and  _195
REMARK   66  A    between atoms: _194  and  _197
REMARK   67  A    between atoms: _197  and  _198
REMARK   68  A    between atoms: _199  and  ZN_409
REMARK   69  A    between atoms: _203  and  _205
REMARK   70  A    between atoms: _205  and  _206
REMARK   71  A    between atoms: _205  and  _208
REMARK   72  A    between atoms: _208  and  _209
REMARK   73  A    between atoms: _212  and  _214
REMARK   74  A    between atoms: _214  and  _215
REMARK   75  A    between atoms: _214  and  _217
REMARK   76  A    between atoms: _220  and  _222
REMARK   77  A    between atoms: _222  and  _223
REMARK   78  A    between atoms: _222  and  _225
REMARK   79  A    between atoms: _225  and  _226
REMARK   80  A    between atoms: _231  and  _233
REMARK   81  A    between atoms: _233  and  _234
REMARK   82  A    between atoms: _233  and  _236
REMARK   83  A    between atoms: _236  and  _237
REMARK   84  A    between atoms: _243  and  _245
REMARK   85  A    between atoms: _245  and  _246
REMARK   86  A    between atoms: _245  and  _248
REMARK   87  A    between atoms: _251  and  _253
REMARK   88  A    between atoms: _253  and  _254
REMARK   89  A    between atoms: _253  and  _256
REMARK   90  A    between atoms: _256  and  _257
REMARK   91  A    between atoms: _260  and  _262
REMARK   92  A    between atoms: _262  and  _263
REMARK   93  A    between atoms: _266  and  _268
REMARK   94  A    between atoms: _268  and  _269
REMARK   95  A    between atoms: _268  and  _271
REMARK   96  A    between atoms: _274  and  _276
REMARK   97  A    between atoms: _276  and  _277
REMARK   98  A    between atoms: _276  and  _279
REMARK   99  A    between atoms: _279  and  _280
REMARK  100  A    between atoms: _283  and  _285
REMARK  101  A    between atoms: _285  and  _286
REMARK  102  A    between atoms: _285  and  _288
REMARK  103  A    between atoms: _288  and  _289
REMARK  104  A    between atoms: _291  and  _293
REMARK  105  A    between atoms: _293  and  _294
REMARK  106  A    between atoms: _293  and  _296
REMARK  107  A    between atoms: _296  and  _297
REMARK  108  A    between atoms: _300  and  _302
REMARK  109  A    between atoms: _302  and  _303
REMARK  110  A    between atoms: _302  and  _305
REMARK  111  A    between atoms: _305  and  _306
REMARK  112  A    between atoms: _309  and  _311
REMARK  113  A    between atoms: _311  and  _312
REMARK  114  A    between atoms: _311  and  _314
REMARK  115  A    between atoms: _314  and  _315
REMARK  116  A    between atoms: _319  and  _320
REMARK  117  A    between atoms: _326  and  _327
REMARK  118  A    between atoms: _332  and  _334
REMARK  119  A    between atoms: _334  and  _335
REMARK  120  A    between atoms: _334  and  _337
REMARK  121  A    between atoms: _337  and  _338
REMARK  122  A    between atoms: _341  and  _343
REMARK  123  A    between atoms: _343  and  _344
REMARK  124  A    between atoms: _343  and  _346
REMARK  125  A    between atoms: _346  and  _347
REMARK  126  A    between atoms: _350  and  _352
REMARK  127  A    between atoms: _352  and  _353
REMARK  128  A    between atoms: _352  and  _355
REMARK  129  A    between atoms: _357  and  _359
REMARK  130  A    between atoms: _359  and  _360
REMARK  131  A    between atoms: _359  and  _362
REMARK  132  A    between atoms: _365  and  _367
REMARK  133  A    between atoms: _367  and  _368
REMARK  134  A    between atoms: _367  and  _370
REMARK  135  A    between atoms: _370  and  _371
REMARK  136  A    between atoms: _381  and  _383
REMARK  137  A    between atoms: _383  and  _384
REMARK  138  A    between atoms: _383  and  _386
REMARK  139  A    between atoms: _386  and  _387
REMARK  140  A    between atoms: _392  and  _394
REMARK  141  A    between atoms: _394  and  _395
REMARK  142  A    between atoms: _394  and  _397
REMARK  143  A    between atoms: _397  and  _398
REMARK  144  A    between atoms: _398  and  _399
REMARK  145  A    between atoms: _399  and  _400
REMARK                            x       y       z     vdW  Elec       q    Type
REMARK                         _______ _______ _______ _____ _____    ______ ____
ROOT
ATOM      1  CA  HIS A   1      -0.701  -3.258   7.296  0.00  0.00    +0.151 C 
ENDROOT
BRANCH   1   2
ATOM      2  C   HIS A   1      -2.129  -3.647   7.636  0.00  0.00    +0.239 C 
ATOM      3  O   HIS A   1      -2.343  -4.544   8.437  0.00  0.00    -0.274 OA
ATOM      4  N   ALA A   2      -3.098  -2.973   7.023  0.00  0.00    -0.298 N 
ATOM      5  H   ALA A   2      -2.841  -2.192   6.385  0.00  0.00    +0.150 HD
BRANCH   4   6
ATOM      6  CA  ALA A   2      -4.510  -3.292   7.215  0.00  0.00    +0.137 C 
ATOM      7  CB  ALA A   2      -4.981  -2.862   8.628  0.00  0.00    +0.030 C 
BRANCH   6   8
ATOM      8  C   ALA A   2      -5.243  -2.510   6.140  0.00  0.00    +0.227 C 
ATOM      9  O   ALA A   2      -4.599  -1.919   5.277  0.00  0.00    -0.286 OA
ENDBRANCH   6   8
ENDBRANCH   4   6
ENDBRANCH   1   2
BRANCH   1  10
ATOM     10  N   HIS A   1      -0.590  -2.356   6.150  0.00  0.00    -0.238 NA
ATOM     11  H   HIS A   1      -1.229  -1.541   6.055  0.00  0.00    +0.142 HD
ENDBRANCH   1  10
BRANCH   1  12
ATOM     12  CB  HIS A   1      -0.009  -2.710   8.539  0.00  0.00    +0.074 C 
BRANCH  12  13
ATOM     13  CG  HIS A   1      -0.371  -1.303   8.878  0.00  0.00    +0.082 A 
ATOM     14  CD2 HIS A   1      -1.359  -0.793   9.655  0.00  0.00    +0.115 A 
ATOM     15  NE2 HIS A   1      -1.185   0.573   9.687  0.00  0.00    -0.221 NA
ATOM     16  CE1 HIS A   1      -0.133   0.886   8.952  0.00  0.00    +0.199 A 
ATOM     17  ND1 HIS A   1       0.376  -0.225   8.450  0.00  0.00    -0.227 NA
ENDBRANCH  12  13
ENDBRANCH   1  12
TORSDOF 6
REMARK  Name = ../refined-set-2016/4mo8/4mo8_pocket.pdb
REMARK  145 active torsions:
REMARK  status: ('A' for Active; 'I' for Inactive)
REMARK    1  A    between atoms: _1  and  _3
REMARK    2  A    between atoms: _3  and  _4
REMARK    3  A    between atoms: _3  and  _6
REMARK    4  A    between atoms: _6  and  _7
REMARK    5  A    between atoms: _17  and  _19
REMARK    6  A    between atoms: _19  and  _20
REMARK    7  A    between atoms: _19  and  _22
REMARK    8  A    between atoms: _22  and  _23
REMARK    9  A    between atoms: _28  and  _29
REMARK   10  A    between atoms: _31  and  _33
REMARK   11  A    between atoms: _33  and  _34
REMARK   12  A    between atoms: _33  and  _36
REMARK   13  A    between atoms: _36  and  _37
REMARK   14  A    between atoms: _40  and  _41
REMARK   15  A    between atoms: _46  and  _48
REMARK   16  A    between atoms: _48  and  _49
REMARK   17  A    between atoms: _48  and  _51
REMARK   18  A    between atoms: _51  and  _52
REMARK   19  A    between atoms: _57  and  _59
REMARK   20  A    between atoms: _59  and  _60
REMARK   21  A    between atoms: _59  and  _62
REMARK   22  A    between atoms: _62  and  _63
REMARK   23  A    between atoms: _68  and  _70
REMARK   24  A    between atoms: _70  and  _71
REMARK   25  A    between atoms: _74  and  _76
REMARK   26  A    between atoms: _76  and  _77
REMARK   27  A    between atoms: _76  and  _79
REMARK   28  A    between atoms: _79  and  _80
REMARK   29  A    between atoms: _85  and  _87
REMARK   30  A    between atoms: _87  and  _88
REMARK   31  A    between atoms: _87  and  _90
REMARK   32  A    between atoms: _90  and  _91
REMARK   33  A    between atoms: _94  and  _96
REMARK   34  A    between atoms: _96  and  _97
REMARK   35  A    between atoms: _96  and  _99
REMARK   36  A    between atoms: _99  and  _100
REMARK   37  A    between atoms: _100  and  _101
REMARK   38  A    between atoms: _106  and  _108
REMARK   39  A    between atoms: _108  and  _109
REMARK   40  A    between atoms: _108  and  _111
REMARK   41  A    between atoms: _111  and  _112
REMARK   42  A    between atoms: _118  and  _120
REMARK   43  A    between atoms: _131  and  _134
REMARK   44  A    between atoms: _134  and  _135
REMARK   45  A    between atoms: _143  and  _144
REMARK   46  A    between atoms: _152  and  _154
REMARK   47  A    between atoms: _154  and  _155
REMARK   48  A    between atoms: _154  and  _157
REMARK   49  A    between atoms: _157  and  _158
REMARK   50  A    between atoms: _158  and  _159
REMARK   51  A    between atoms: _162  and  _164
REMARK   52  A    between atoms: _164  and  _165
REMARK   53  A    between atoms: _164  and  _167
REMARK   54  A    between atoms: _167  and  _168
REMARK   55  A    between atoms: _173  and  _175
REMARK   56  A    between atoms: _175  and  _176
REMARK   57  A    between atoms: _175  and  _178
REMARK   58  A    between atoms: _178  and  _179
REMARK   59  A    between atoms: _179  and  _180
REMARK   60  A    between atoms: _183  and  _185
REMARK   61  A    between atoms: _185  and  _186
REMARK   62  A    between atoms: _185  and  _188
REMARK   63  A    between atoms: _188  and  _189
REMARK   64  A    between atoms: _192  and  _194
REMARK   65  A    between atoms: _194  and  _195
REMARK   66  A    between atoms: _194  and  _197
REMARK   67  A    between atoms: _197  and  _198
REMARK   68  A    between atoms: _199  and  ZN_409
REMARK   69  A    between atoms: _203  and  _205
REMARK   70  A    between atoms: _205  and  _206
REMARK   71  A    between atoms: _205  and  _208
REMARK   72  A    between atoms: _208  and  _209
REMARK   73  A    between atoms: _212  and  _214
REMARK   74  A    between atoms: _214  and  _215
REMARK   75  A    between atoms: _214  and  _217
REMARK   76  A    between atoms: _220  and  _222
REMARK   77  A    between atoms: _222  and  _223
REMARK   78  A    between atoms: _222  and  _225
REMARK   79  A    between atoms: _225  and  _226
REMARK   80  A    between atoms: _231  and  _233
REMARK   81  A    between atoms: _233  and  _234
REMARK   82  A    between atoms: _233  and  _236
REMARK   83  A    between atoms: _236  and  _237
REMARK   84  A    between atoms: _243  and  _245
REMARK   85  A    between atoms: _245  and  _246
REMARK   86  A    between atoms: _245  and  _248
REMARK   87  A    between atoms: _251  and  _253
REMARK   88  A    between atoms: _253  and  _254
REMARK   89  A    between atoms: _253  and  _256
REMARK   90  A    between atoms: _256  and  _257
REMARK   91  A    between atoms: _260  and  _262
REMARK   92  A    between atoms: _262  and  _263
REMARK   93  A    between atoms: _266  and  _268
REMARK   94  A    between atoms: _268  and  _269
REMARK   95  A    between atoms: _268  and  _271
REMARK   96  A    between atoms: _274  and  _276
REMARK   97  A    between atoms: _276  and  _277
REMARK   98  A    between atoms: _276  and  _279
REMARK   99  A    between atoms: _279  and  _280
REMARK  100  A    between atoms: _283  and  _285
REMARK  101  A    between atoms: _285  and  _286
REMARK  102  A    between atoms: _285  and  _288
REMARK  103  A    between atoms: _288  and  _289
REMARK  104  A    between atoms: _291  and  _293
REMARK  105  A    between atoms: _293  and  _294
REMARK  106  A    between atoms: _293  and  _296
REMARK  107  A    between atoms: _296  and  _297
REMARK  108  A    between atoms: _300  and  _302
REMARK  109  A    between atoms: _302  and  _303
REMARK  110  A    between atoms: _302  and  _305
REMARK  111  A    between atoms: _305  and  _306
REMARK  112  A    between atoms: _309  and  _311
REMARK  113  A    between atoms: _311  and  _312
REMARK  114  A    between atoms: _311  and  _314
REMARK  115  A    between atoms: _314  and  _315
REMARK  116  A    between atoms: _319  and  _320
REMARK  117  A    between atoms: _326  and  _327
REMARK  118  A    between atoms: _332  and  _334
REMARK  119  A    between atoms: _334  and  _335
REMARK  120  A    between atoms: _334  and  _337
REMARK  121  A    between atoms: _337  and  _338
REMARK  122  A    between atoms: _341  and  _343
REMARK  123  A    between atoms: _343  and  _344
REMARK  124  A    between atoms: _343  and  _346
REMARK  125  A    between atoms: _346  and  _347
REMARK  126  A    between atoms: _350  and  _352
REMARK  127  A    between atoms: _352  and  _353
REMARK  128  A    between atoms: _352  and  _355
REMARK  129  A    between atoms: _357  and  _359
REMARK  130  A    between atoms: _359  and  _360
REMARK  131  A    between atoms: _359  and  _362
REMARK  132  A    between atoms: _365  and  _367
REMARK  133  A    between atoms: _367  and  _368
REMARK  134  A    between atoms: _367  and  _370
REMARK  135  A    between atoms: _370  and  _371
REMARK  136  A    between atoms: _381  and  _383
REMARK  137  A    between atoms: _383  and  _384
REMARK  138  A    between atoms: _383  and  _386
REMARK  139  A    between atoms: _386  and  _387
REMARK  140  A    between atoms: _392  and  _394
REMARK  141  A    between atoms: _394  and  _395
REMARK  142  A    between atoms: _394  and  _397
REMARK  143  A    between atoms: _397  and  _398
REMARK  144  A    between atoms: _398  and  _399
REMARK  145  A    between atoms: _399  and  _400
REMARK                            x       y       z     vdW  Elec       q    Type
REMARK                         _______ _______ _______ _____ _____    ______ ____
ROOT
ATOM      1  CB  ASN A   1      -8.404   2.589   6.949  0.00  0.00    +0.110 C 
ENDROOT
BRANCH   1   2
ATOM      2  CG  ASN A   1      -7.150   2.326   7.729  0.00  0.00    +0.221 C 
ATOM      3  OD1 ASN A   1      -7.009   1.294   8.360  0.00  0.00    -0.275 OA
ATOM      4  ND2 ASN A   1      -6.215   3.289   7.697  0.00  0.00    -0.329 N 
ATOM      5 HD21 ASN A   1      -5.327   3.169   8.225  0.00  0.00    +0.145 HD
ATOM      6 HD22 ASN A   1      -6.379   4.155   7.144  0.00  0.00    +0.145 HD
ENDBRANCH   1   2
BRANCH   1   7
ATOM      7  CA  ASN A   1      -9.154   1.311   6.527  0.00  0.00    +0.142 C 
BRANCH   7   8
ATOM      8  N   ASN A   1      -8.310   0.411   5.770  0.00  0.00    -0.239 NA
ATOM      9  H   ASN A   1      -7.749   0.779   4.975  0.00  0.00    +0.142 HD
ENDBRANCH   7   8
BRANCH   7  10
ATOM     10  C   ASN A   1     -10.344   1.787   5.712  0.00  0.00    +0.225 C 
ATOM     11  O   ASN A   1     -10.187   2.157   4.546  0.00  0.00    -0.287 OA
ENDBRANCH   7  10
ENDBRANCH   1   7
TORSDOF 4
REMARK  Name = ../refined-set-2016/4mo8/4mo8_pocket.pdb
REMARK  145 active torsions:
REMARK  status: ('A' for Active; 'I' for Inactive)
REMARK    1  A    between atoms: _1  and  _3
REMARK    2  A    between atoms: _3  and  _4
REMARK    3  A    between atoms: _3  and  _6
REMARK    4  A    between atoms: _6  and  _7
REMARK    5  A    between atoms: _17  and  _19
REMARK    6  A    between atoms: _19  and  _20
REMARK    7  A    between atoms: _19  and  _22
REMARK    8  A    between atoms: _22  and  _23
REMARK    9  A    between atoms: _28  and  _29
REMARK   10  A    between atoms: _31  and  _33
REMARK   11  A    between atoms: _33  and  _34
REMARK   12  A    between atoms: _33  and  _36
REMARK   13  A    between atoms: _36  and  _37
REMARK   14  A    between atoms: _40  and  _41
REMARK   15  A    between atoms: _46  and  _48
REMARK   16  A    between atoms: _48  and  _49
REMARK   17  A    between atoms: _48  and  _51
REMARK   18  A    between atoms: _51  and  _52
REMARK   19  A    between atoms: _57  and  _59
REMARK   20  A    between atoms: _59  and  _60
REMARK   21  A    between atoms: _59  and  _62
REMARK   22  A    between atoms: _62  and  _63
REMARK   23  A    between atoms: _68  and  _70
REMARK   24  A    between atoms: _70  and  _71
REMARK   25  A    between atoms: _74  and  _76
REMARK   26  A    between atoms: _76  and  _77
REMARK   27  A    between atoms: _76  and  _79
REMARK   28  A    between atoms: _79  and  _80
REMARK   29  A    between atoms: _85  and  _87
REMARK   30  A    between atoms: _87  and  _88
REMARK   31  A    between atoms: _87  and  _90
REMARK   32  A    between atoms: _90  and  _91
REMARK   33  A    between atoms: _94  and  _96
REMARK   34  A    between atoms: _96  and  _97
REMARK   35  A    between atoms: _96  and  _99
REMARK   36  A    between atoms: _99  and  _100
REMARK   37  A    between atoms: _100  and  _101
REMARK   38  A    between atoms: _106  and  _108
REMARK   39  A    between atoms: _108  and  _109
REMARK   40  A    between atoms: _108  and  _111
REMARK   41  A    between atoms: _111  and  _112
REMARK   42  A    between atoms: _118  and  _120
REMARK   43  A    between atoms: _131  and  _134
REMARK   44  A    between atoms: _134  and  _135
REMARK   45  A    between atoms: _143  and  _144
REMARK   46  A    between atoms: _152  and  _154
REMARK   47  A    between atoms: _154  and  _155
REMARK   48  A    between atoms: _154  and  _157
REMARK   49  A    between atoms: _157  and  _158
REMARK   50  A    between atoms: _158  and  _159
REMARK   51  A    between atoms: _162  and  _164
REMARK   52  A    between atoms: _164  and  _165
REMARK   53  A    between atoms: _164  and  _167
REMARK   54  A    between atoms: _167  and  _168
REMARK   55  A    between atoms: _173  and  _175
REMARK   56  A    between atoms: _175  and  _176
REMARK   57  A    between atoms: _175  and  _178
REMARK   58  A    between atoms: _178  and  _179
REMARK   59  A    between atoms: _179  and  _180
REMARK   60  A    between atoms: _183  and  _185
REMARK   61  A    between atoms: _185  and  _186
REMARK   62  A    between atoms: _185  and  _188
REMARK   63  A    between atoms: _188  and  _189
REMARK   64  A    between atoms: _192  and  _194
REMARK   65  A    between atoms: _194  and  _195
REMARK   66  A    between atoms: _194  and  _197
REMARK   67  A    between atoms: _197  and  _198
REMARK   68  A    between atoms: _199  and  ZN_409
REMARK   69  A    between atoms: _203  and  _205
REMARK   70  A    between atoms: _205  and  _206
REMARK   71  A    between atoms: _205  and  _208
REMARK   72  A    between atoms: _208  and  _209
REMARK   73  A    between atoms: _212  and  _214
REMARK   74  A    between atoms: _214  and  _215
REMARK   75  A    between atoms: _214  and  _217
REMARK   76  A    between atoms: _220  and  _222
REMARK   77  A    between atoms: _222  and  _223
REMARK   78  A    between atoms: _222  and  _225
REMARK   79  A    between atoms: _225  and  _226
REMARK   80  A    between atoms: _231  and  _233
REMARK   81  A    between atoms: _233  and  _234
REMARK   82  A    between atoms: _233  and  _236
REMARK   83  A    between atoms: _236  and  _237
REMARK   84  A    between atoms: _243  and  _245
REMARK   85  A    between atoms: _245  and  _246
REMARK   86  A    between atoms: _245  and  _248
REMARK   87  A    between atoms: _251  and  _253
REMARK   88  A    between atoms: _253  and  _254
REMARK   89  A    between atoms: _253  and  _256
REMARK   90  A    between atoms: _256  and  _257
REMARK   91  A    between atoms: _260  and  _262
REMARK   92  A    between atoms: _262  and  _263
REMARK   93  A    between atoms: _266  and  _268
REMARK   94  A    between atoms: _268  and  _269
REMARK   95  A    between atoms: _268  and  _271
REMARK   96  A    between atoms: _274  and  _276
REMARK   97  A    between atoms: _276  and  _277
REMARK   98  A    between atoms: _276  and  _279
REMARK   99  A    between atoms: _279  and  _280
REMARK  100  A    between atoms: _283  and  _285
REMARK  101  A    between atoms: _285  and  _286
REMARK  102  A    between atoms: _285  and  _288
REMARK  103  A    between atoms: _288  and  _289
REMARK  104  A    between atoms: _291  and  _293
REMARK  105  A    between atoms: _293  and  _294
REMARK  106  A    between atoms: _293  and  _296
REMARK  107  A    between atoms: _296  and  _297
REMARK  108  A    between atoms: _300  and  _302
REMARK  109  A    between atoms: _302  and  _303
REMARK  110  A    between atoms: _302  and  _305
REMARK  111  A    between atoms: _305  and  _306
REMARK  112  A    between atoms: _309  and  _311
REMARK  113  A    between atoms: _311  and  _312
REMARK  114  A    between atoms: _311  and  _314
REMARK  115  A    between atoms: _314  and  _315
REMARK  116  A    between atoms: _319  and  _320
REMARK  117  A    between atoms: _326  and  _327
REMARK  118  A    between atoms: _332  and  _334
REMARK  119  A    between atoms: _334  and  _335
REMARK  120  A    between atoms: _334  and  _337
REMARK  121  A    between atoms: _337  and  _338
REMARK  122  A    between atoms: _341  and  _343
REMARK  123  A    between atoms: _343  and  _344
REMARK  124  A    between atoms: _343  and  _346
REMARK  125  A    between atoms: _346  and  _347
REMARK  126  A    between atoms: _350  and  _352
REMARK  127  A    between atoms: _352  and  _353
REMARK  128  A    between atoms: _352  and  _355
REMARK  129  A    between atoms: _357  and  _359
REMARK  130  A    between atoms: _359  and  _360
REMARK  131  A    between atoms: _359  and  _362
REMARK  132  A    between atoms: _365  and  _367
REMARK  133  A    between atoms: _367  and  _368
REMARK  134  A    between atoms: _367  and  _370
REMARK  135  A    between atoms: _370  and  _371
REMARK  136  A    between atoms: _381  and  _383
REMARK  137  A    between atoms: _383  and  _384
REMARK  138  A    between atoms: _383  and  _386
REMARK  139  A    between atoms: _386  and  _387
REMARK  140  A    between atoms: _392  and  _394
REMARK  141  A    between atoms: _394  and  _395
REMARK  142  A    between atoms: _394  and  _397
REMARK  143  A    between atoms: _397  and  _398
REMARK  144  A    between atoms: _398  and  _399
REMARK  145  A    between atoms: _399  and  _400
REMARK                            x       y       z     vdW  Elec       q    Type
REMARK                         _______ _______ _______ _____ _____    ______ ____
ROOT
ATOM      1  C   UNK A   4     -10.185  -1.513  10.243  0.00  0.00    +0.000 C 
ATOM      2  C   UNK A   4     -10.253  -2.770  11.074  0.00  0.00    +0.000 C 
ATOM      3  O   UNK A   4     -10.923  -2.792  12.122  0.00  0.00    +0.000 OA
ATOM      4  N   VAL A   5      -9.535  -3.786  10.617  0.00  0.00    +0.000 N 
ATOM      5  CA  VAL A   5      -9.473  -5.080  11.283  0.00  0.00    +0.000 C 
ATOM      6  C   VAL A   5      -8.044  -5.572  11.460  0.00  0.00    +0.000 C 
ATOM      7  N   UNK A   6      -7.894  -6.555  12.347  0.00  0.00    +0.000 N 
ATOM      8  H   UNK A   6      -8.728  -6.840  12.899  0.00  0.00    +0.000 HD
ATOM      9  C   UNK A   6      -6.643  -7.258  12.598  0.00  0.00    +0.000 C 
ATOM     10  C   UNK A   6      -6.137  -6.986  14.021  0.00  0.00    +0.000 C 
ATOM     11  C   UNK A   6      -5.779  -5.557  14.260  0.00  0.00    +0.000 A 
ATOM     12  C   UNK A   6      -6.561  -4.513  14.644  0.00  0.00    +0.000 A 
ATOM     13  N   UNK A   6      -5.790  -3.361  14.691  0.00  0.00    +0.000 N 
ATOM     14 ZN   UNK A   6      -6.602  -1.630  15.280  0.00  0.00    +0.000 Zn
ATOM     15  N   UNK A   4      -7.374  -0.787  13.689  0.00  0.00    +0.000 N 
ATOM     16  C   UNK A   4      -7.895   0.413  13.496  0.00  0.00    +0.000 A 
ATOM     17  N   UNK A   4      -8.407   0.520  12.255  0.00  0.00    +0.000 NA
ATOM     18  C   UNK A   4      -8.210  -0.687  11.619  0.00  0.00    +0.000 A 
ATOM     19  C   UNK A   4      -7.566  -1.472  12.519  0.00  0.00    +0.000 A 
ATOM     20  C   UNK A   6      -4.570  -3.720  14.336  0.00  0.00    +0.000 A 
ATOM     21  N   UNK A   6      -4.518  -5.033  14.061  0.00  0.00    +0.000 NA
ATOM     22  O   VAL A   5      -7.124  -5.095  10.809  0.00  0.00    +0.000 OA
ATOM     23  H   VAL A   5      -8.990  -3.653   9.741  0.00  0.00    +0.000 HD
ATOM     24  C   UNK A   4      -8.731  -1.016  10.245  0.00  0.00    +0.000 C 
ENDROOT
BRANCH  14  25
ATOM     25  N   UNK A   6      -8.038  -2.317  16.557  0.00  0.00    +0.000 N 
ATOM     26  C   UNK A   6      -7.759  -3.248  17.455  0.00  0.00    +0.000 A 
ATOM     27  N   UNK A   6      -8.868  -3.709  18.054  0.00  0.00    +0.000 NA
ATOM     28  C   UNK A   6      -9.931  -3.022  17.501  0.00  0.00    +0.000 A 
ATOM     29  C   UNK A   6      -9.409  -2.172  16.583  0.00  0.00    +0.000 A 
BRANCH  29  30
ATOM     30  C   UNK A   6     -10.119  -1.189  15.698  0.00  0.00    +0.000 C 
BRANCH  30  31
ATOM     31  C   UNK A   6     -11.643  -1.464  15.562  0.00  0.00    +0.000 C 
BRANCH  31  32
ATOM     32  C   UNK A   6     -12.309  -0.284  14.853  0.00  0.00    +0.000 C 
ATOM     33  N   UNK A   4     -13.273   0.340  15.538  0.00  0.00    +0.000 N 
ATOM     34  H   UNK A   4     -13.548  -0.040  16.467  0.00  0.00    +0.000 HD
ATOM     35  O   UNK A   6     -11.980   0.008  13.689  0.00  0.00    +0.000 OA
BRANCH  33  36
ATOM     36  C   UNK A   4     -13.958   1.531  15.041  0.00  0.00    +0.000 C 
BRANCH  36  37
ATOM     37  C   UNK A   4     -13.309   2.629  15.878  0.00  0.00    +0.000 C 
ATOM     38  O   UNK A   4     -13.503   2.708  17.099  0.00  0.00    +0.000 OA
ATOM     39  N   VAL A   5     -12.515   3.444  15.198  0.00  0.00    +0.000 N 
ATOM     40  H   VAL A   5     -12.442   3.319  14.168  0.00  0.00    +0.000 HD
BRANCH  39  41
ATOM     41  CA  VAL A   5     -11.738   4.510  15.827  0.00  0.00    +0.000 C 
BRANCH  41  42
ATOM     42  C   VAL A   5     -12.470   5.834  15.862  0.00  0.00    +0.000 C 
ATOM     43  N   UNK A   6     -12.553   6.438  17.051  0.00  0.00    +0.000 N 
ATOM     44  H   UNK A   6     -12.115   5.987  17.879  0.00  0.00    +0.000 HD
ATOM     45  O   VAL A   5     -12.917   6.314  14.826  0.00  0.00    +0.000 OA
BRANCH  43  46
ATOM     46  C   UNK A   6     -13.244   7.716  17.218  0.00  0.00    +0.000 C 
BRANCH  46  47
ATOM     47  C   UNK A   6     -12.354   8.708  17.955  0.00  0.00    +0.000 C 
ATOM     48  O   UNK A   6     -11.574   8.298  18.810  0.00  0.00    +0.000 OA
ENDBRANCH  46  47
BRANCH  46  49
ATOM     49  C   UNK A   6     -14.524   7.547  18.054  0.00  0.00    +0.000 C 
BRANCH  49  50
ATOM     50  C   UNK A   6     -15.398   6.412  17.617  0.00  0.00    +0.000 A 
ATOM     51  N   UNK A   6     -15.056   5.091  17.811  0.00  0.00    +0.000 NA
ATOM     52  C   UNK A   6     -16.029   4.314  17.361  0.00  0.00    +0.000 A 
ATOM     53  N   UNK A   6     -16.991   5.085  16.879  0.00  0.00    +0.000 NA
ATOM     54  C   UNK A   6     -16.618   6.403  17.024  0.00  0.00    +0.000 A 
ENDBRANCH  49  50
ENDBRANCH  46  49
ENDBRANCH  43  46
ENDBRANCH  41  42
BRANCH  41  55
ATOM     55  CB  VAL A   5     -10.414   4.689  15.052  0.00  0.00    +0.000 C 
ATOM     56  CG2 VAL A   5      -9.507   5.699  15.750  0.00  0.00    +0.000 C 
ATOM     57  CG1 VAL A   5      -9.725   3.346  14.911  0.00  0.00    +0.000 C 
ENDBRANCH  41  55
ENDBRANCH  39  41
ENDBRANCH  36  37
BRANCH  36  58
ATOM     58  C   UNK A   4     -15.455   1.447  15.298  0.00  0.00    +0.000 C 
BRANCH  58  59
ATOM     59  C   UNK A   4     -16.133   0.386  14.406  0.00  0.00    +0.000 C 
ATOM     60  C   UNK A   4     -16.977  -0.558  15.236  0.00  0.00    +0.000 C 
ATOM     61  C   UNK A   4     -16.988   1.099  13.351  0.00  0.00    +0.000 C 
ENDBRANCH  58  59
ENDBRANCH  36  58
ENDBRANCH  33  36
ENDBRANCH  31  32
BRANCH  31  62
ATOM     62  N   UNK A   6     -11.866  -2.660  14.782  0.00  0.00    +0.000 N 
ATOM     63  C   LEU A   2     -12.472  -3.741  15.266  0.00  0.00    +0.000 C 
ATOM     64  O   LEU A   2     -12.837  -3.842  16.423  0.00  0.00    +0.000 OA
ATOM     65  H   UNK A   6     -11.537  -2.676  13.795  0.00  0.00    +0.000 HD
BRANCH  63  66
ATOM     66  CA  LEU A   2     -12.683  -4.898  14.300  0.00  0.00    +0.000 C 
BRANCH  66  67
ATOM     67  N   LEU A   2     -12.309  -6.135  14.987  0.00  0.00    +0.000 N 
ATOM     68  H   LEU A   2     -13.021  -6.599  15.587  0.00  0.00    +0.000 HD
ATOM     69  C   GLU A   1     -11.112  -6.697  14.887  0.00  0.00    +0.000 C 
ATOM     70  O   GLU A   1     -10.196  -6.257  14.192  0.00  0.00    +0.000 OA
BRANCH  69  71
ATOM     71  CA  GLU A   1     -10.936  -7.966  15.699  0.00  0.00    +0.000 C 
BRANCH  71  72
ATOM     72  N   GLU A   1     -10.445  -9.017  14.814  0.00  0.00    +0.000 NA
ATOM     73  H   GLU A   1      -9.825  -8.764  14.019  0.00  0.00    +0.000 HD
ENDBRANCH  71  72
BRANCH  71  74
ATOM     74  CB  GLU A   1      -9.946  -7.716  16.841  0.00  0.00    +0.000 C 
BRANCH  74  75
ATOM     75  CG  GLU A   1     -10.473  -6.757  17.936  0.00  0.00    +0.000 C 
BRANCH  75  76
ATOM     76  CD  GLU A   1      -9.538  -6.685  19.120  0.00  0.00    +0.000 C 
ATOM     77  OE2 GLU A   1      -9.453  -5.596  19.726  0.00  0.00    +0.000 OA
ATOM     78  OE1 GLU A   1      -8.901  -7.724  19.452  0.00  0.00    +0.000 OA
ENDBRANCH  75  76
ENDBRANCH  74  75
ENDBRANCH  71  74
ENDBRANCH  69  71
ENDBRANCH  66  67
BRANCH  66  79
ATOM     79  CB  LEU A   2     -14.166  -4.975  13.925  0.00  0.00    +0.000 C 
BRANCH  79  80
ATOM     80  CG  LEU A   2     -14.950  -3.699  13.583  0.00  0.00    +0.000 C 
ATOM     81  CD2 LEU A   2     -16.412  -4.072  13.372  0.00  0.00    +0.000 C 
ATOM     82  CD1 LEU A   2     -14.376  -3.054  12.337  0.00  0.00    +0.000 C 
ENDBRANCH  79  80
ENDBRANCH  66  79
ENDBRANCH  63  66
ENDBRANCH  31  62
ENDBRANCH  30  31
ENDBRANCH  29  30
ENDBRANCH  14  25
BRANCH   1  84
ATOM     83  C   UNK A   3     -11.627   0.441  10.266  0.00  0.00    +0.000 C 
ATOM     84  N   UNK A   4     -11.072  -0.574  10.916  0.00  0.00    +0.000 N 
ATOM     85  H   UNK A   4     -11.275  -0.702  11.928  0.00  0.00    +0.000 HD
ATOM     86  O   UNK A   3     -11.364   0.679   9.091  0.00  0.00    +0.000 OA
BRANCH  83  87
ATOM     87  C   UNK A   3     -12.536   1.363  11.084  0.00  0.00    +0.000 C 
BRANCH  87  90
ATOM     88  C   LEU A   2     -12.436   3.779  11.123  0.00  0.00    +0.000 C 
ATOM     89  O   LEU A   2     -12.517   3.805  12.341  0.00  0.00    +0.000 OA
ATOM     90  N   UNK A   3     -12.539   2.656  10.408  0.00  0.00    +0.000 N 
ATOM     91  H   UNK A   3     -12.621   2.703   9.372  0.00  0.00    +0.000 HD
BRANCH  88  92
ATOM     92  CA  LEU A   2     -12.270   5.076  10.350  0.00  0.00    +0.000 C 
BRANCH  92  94
ATOM     93  C   GLU A   1     -12.614   7.460  10.694  0.00  0.00    +0.000 C 
ATOM     94  N   LEU A   2     -12.496   6.236  11.213  0.00  0.00    +0.000 N 
ATOM     95  H   LEU A   2     -12.565   6.105  12.242  0.00  0.00    +0.000 HD
ATOM     96  O   GLU A   1     -12.557   7.671   9.484  0.00  0.00    +0.000 OA
BRANCH  93  97
ATOM     97  CA  GLU A   1     -12.864   8.613  11.670  0.00  0.00    +0.000 C 
BRANCH  97  98
ATOM     98  CB  GLU A   1     -11.509   9.182  12.202  0.00  0.00    +0.000 C 
ATOM     99  CG2 GLU A   1     -10.884   8.242  13.223  0.00  0.00    +0.000 C 
BRANCH  98 100
ATOM    100  CG1 GLU A   1     -10.568   9.458  11.015  0.00  0.00    +0.000 C 
ATOM    101  CD1 GLU A   1      -9.367  10.347  11.378  0.00  0.00    +0.000 C 
ENDBRANCH  98 100
ENDBRANCH  97  98
BRANCH  97 102
ATOM    102  N   GLU A   1     -13.734   8.175  12.750  0.00  0.00    +0.000 NA
ATOM    103  H   GLU A   1     -13.371   7.516  13.468  0.00  0.00    +0.000 HD
ENDBRANCH  97 102
ENDBRANCH  93  97
ENDBRANCH  92  94
BRANCH  92 104
ATOM    104  CB  LEU A   2     -10.836   5.107   9.792  0.00  0.00    +0.000 C 
BRANCH 104 105
ATOM    105  CG  LEU A   2      -9.723   5.091  10.878  0.00  0.00    +0.000 C 
BRANCH 105 106
ATOM    106  CD  LEU A   2      -8.956   3.766  10.955  0.00  0.00    +0.000 C 
ATOM    107  OE1 LEU A   2      -9.543   2.714  11.197  0.00  0.00    +0.000 OA
ATOM    108  NE2 LEU A   2      -7.642   3.821  10.751  0.00  0.00    +0.000 N 
ATOM    109 HE21 LEU A   2      -7.072   2.952  10.794  0.00  0.00    +0.000 HD
ATOM    110 HE22 LEU A   2      -7.185   4.733  10.549  0.00  0.00    +0.000 HD
ENDBRANCH 105 106
ENDBRANCH 104 105
ENDBRANCH  92 104
ENDBRANCH  88  92
ENDBRANCH  87  90
BRANCH  87 111
ATOM    111  C   UNK A   3     -13.956   0.785  11.304  0.00  0.00    +0.000 C 
BRANCH 111 112
ATOM    112  C   UNK A   3     -14.642   0.290  10.051  0.00  0.00    +0.000 A 
ATOM    113  C   UNK A   3     -15.778   0.951   9.568  0.00  0.00    +0.000 A 
ATOM    114  C   UNK A   3     -16.477   0.462   8.437  0.00  0.00    +0.000 A 
ATOM    115  C   UNK A   3     -16.030  -0.682   7.797  0.00  0.00    +0.000 A 
ATOM    116  C   UNK A   3     -14.898  -1.350   8.264  0.00  0.00    +0.000 A 
ATOM    117  C   UNK A   3     -14.205  -0.860   9.393  0.00  0.00    +0.000 A 
ENDBRANCH 111 112
ENDBRANCH  87 111
ENDBRANCH  83  87
ENDBRANCH   1  84
BRANCH   9 118
ATOM    118  C   UNK A   6      -7.090  -8.724  12.466  0.00  0.00    +0.000 C 
ATOM    119  O   UNK A   6      -8.113  -9.108  13.037  0.00  0.00    +0.000 OA
ENDBRANCH   9 118
BRANCH   5 120
ATOM    120  CB  VAL A   5     -10.211  -6.167  10.453  0.00  0.00    +0.000 C 
BRANCH 120 121
ATOM    121  CG  VAL A   5     -11.667  -5.862  10.169  0.00  0.00    +0.000 A 
ATOM    122  CD2 VAL A   5     -12.680  -6.536  10.842  0.00  0.00    +0.000 A 
ATOM    123  CE2 VAL A   5     -14.016  -6.363  10.488  0.00  0.00    +0.000 A 
ATOM    124  CZ  VAL A   5     -14.349  -5.494   9.443  0.00  0.00    +0.000 A 
ATOM    125  CE1 VAL A   5     -13.346  -4.812   8.774  0.00  0.00    +0.000 A 
ATOM    126  CD1 VAL A   5     -12.015  -4.995   9.138  0.00  0.00    +0.000 A 
ENDBRANCH 120 121
ENDBRANCH   5 120
TORSDOF 42
REMARK  Name = ../refined-set-2016/4mo8/4mo8_pocket.pdb
REMARK  145 active torsions:
REMARK  status: ('A' for Active; 'I' for Inactive)
REMARK    1  A    between atoms: _1  and  _3
REMARK    2  A    between atoms: _3  and  _4
REMARK    3  A    between atoms: _3  and  _6
REMARK    4  A    between atoms: _6  and  _7
REMARK    5  A    between atoms: _17  and  _19
REMARK    6  A    between atoms: _19  and  _20
REMARK    7  A    between atoms: _19  and  _22
REMARK    8  A    between atoms: _22  and  _23
REMARK    9  A    between atoms: _28  and  _29
REMARK   10  A    between atoms: _31  and  _33
REMARK   11  A    between atoms: _33  and  _34
REMARK   12  A    between atoms: _33  and  _36
REMARK   13  A    between atoms: _36  and  _37
REMARK   14  A    between atoms: _40  and  _41
REMARK   15  A    between atoms: _46  and  _48
REMARK   16  A    between atoms: _48  and  _49
REMARK   17  A    between atoms: _48  and  _51
REMARK   18  A    between atoms: _51  and  _52
REMARK   19  A    between atoms: _57  and  _59
REMARK   20  A    between atoms: _59  and  _60
REMARK   21  A    between atoms: _59  and  _62
REMARK   22  A    between atoms: _62  and  _63
REMARK   23  A    between atoms: _68  and  _70
REMARK   24  A    between atoms: _70  and  _71
REMARK   25  A    between atoms: _74  and  _76
REMARK   26  A    between atoms: _76  and  _77
REMARK   27  A    between atoms: _76  and  _79
REMARK   28  A    between atoms: _79  and  _80
REMARK   29  A    between atoms: _85  and  _87
REMARK   30  A    between atoms: _87  and  _88
REMARK   31  A    between atoms: _87  and  _90
REMARK   32  A    between atoms: _90  and  _91
REMARK   33  A    between atoms: _94  and  _96
REMARK   34  A    between atoms: _96  and  _97
REMARK   35  A    between atoms: _96  and  _99
REMARK   36  A    between atoms: _99  and  _100
REMARK   37  A    between atoms: _100  and  _101
REMARK   38  A    between atoms: _106  and  _108
REMARK   39  A    between atoms: _108  and  _109
REMARK   40  A    between atoms: _108  and  _111
REMARK   41  A    between atoms: _111  and  _112
REMARK   42  A    between atoms: _118  and  _120
REMARK   43  A    between atoms: _131  and  _134
REMARK   44  A    between atoms: _134  and  _135
REMARK   45  A    between atoms: _143  and  _144
REMARK   46  A    between atoms: _152  and  _154
REMARK   47  A    between atoms: _154  and  _155
REMARK   48  A    between atoms: _154  and  _157
REMARK   49  A    between atoms: _157  and  _158
REMARK   50  A    between atoms: _158  and  _159
REMARK   51  A    between atoms: _162  and  _164
REMARK   52  A    between atoms: _164  and  _165
REMARK   53  A    between atoms: _164  and  _167
REMARK   54  A    between atoms: _167  and  _168
REMARK   55  A    between atoms: _173  and  _175
REMARK   56  A    between atoms: _175  and  _176
REMARK   57  A    between atoms: _175  and  _178
REMARK   58  A    between atoms: _178  and  _179
REMARK   59  A    between atoms: _179  and  _180
REMARK   60  A    between atoms: _183  and  _185
REMARK   61  A    between atoms: _185  and  _186
REMARK   62  A    between atoms: _185  and  _188
REMARK   63  A    between atoms: _188  and  _189
REMARK   64  A    between atoms: _192  and  _194
REMARK   65  A    between atoms: _194  and  _195
REMARK   66  A    between atoms: _194  and  _197
REMARK   67  A    between atoms: _197  and  _198
REMARK   68  A    between atoms: _199  and  ZN_409
REMARK   69  A    between atoms: _203  and  _205
REMARK   70  A    between atoms: _205  and  _206
REMARK   71  A    between atoms: _205  and  _208
REMARK   72  A    between atoms: _208  and  _209
REMARK   73  A    between atoms: _212  and  _214
REMARK   74  A    between atoms: _214  and  _215
REMARK   75  A    between atoms: _214  and  _217
REMARK   76  A    between atoms: _220  and  _222
REMARK   77  A    between atoms: _222  and  _223
REMARK   78  A    between atoms: _222  and  _225
REMARK   79  A    between atoms: _225  and  _226
REMARK   80  A    between atoms: _231  and  _233
REMARK   81  A    between atoms: _233  and  _234
REMARK   82  A    between atoms: _233  and  _236
REMARK   83  A    between atoms: _236  and  _237
REMARK   84  A    between atoms: _243  and  _245
REMARK   85  A    between atoms: _245  and  _246
REMARK   86  A    between atoms: _245  and  _248
REMARK   87  A    between atoms: _251  and  _253
REMARK   88  A    between atoms: _253  and  _254
REMARK   89  A    between atoms: _253  and  _256
REMARK   90  A    between atoms: _256  and  _257
REMARK   91  A    between atoms: _260  and  _262
REMARK   92  A    between atoms: _262  and  _263
REMARK   93  A    between atoms: _266  and  _268
REMARK   94  A    between atoms: _268  and  _269
REMARK   95  A    between atoms: _268  and  _271
REMARK   96  A    between atoms: _274  and  _276
REMARK   97  A    between atoms: _276  and  _277
REMARK   98  A    between atoms: _276  and  _279
REMARK   99  A    between atoms: _279  and  _280
REMARK  100  A    between atoms: _283  and  _285
REMARK  101  A    between atoms: _285  and  _286
REMARK  102  A    between atoms: _285  and  _288
REMARK  103  A    between atoms: _288  and  _289
REMARK  104  A    between atoms: _291  and  _293
REMARK  105  A    between atoms: _293  and  _294
REMARK  106  A    between atoms: _293  and  _296
REMARK  107  A    between atoms: _296  and  _297
REMARK  108  A    between atoms: _300  and  _302
REMARK  109  A    between atoms: _302  and  _303
REMARK  110  A    between atoms: _302  and  _305
REMARK  111  A    between atoms: _305  and  _306
REMARK  112  A    between atoms: _309  and  _311
REMARK  113  A    between atoms: _311  and  _312
REMARK  114  A    between atoms: _311  and  _314
REMARK  115  A    between atoms: _314  and  _315
REMARK  116  A    between atoms: _319  and  _320
REMARK  117  A    between atoms: _326  and  _327
REMARK  118  A    between atoms: _332  and  _334
REMARK  119  A    between atoms: _334  and  _335
REMARK  120  A    between atoms: _334  and  _337
REMARK  121  A    between atoms: _337  and  _338
REMARK  122  A    between atoms: _341  and  _343
REMARK  123  A    between atoms: _343  and  _344
REMARK  124  A    between atoms: _343  and  _346
REMARK  125  A    between atoms: _346  and  _347
REMARK  126  A    between atoms: _350  and  _352
REMARK  127  A    between atoms: _352  and  _353
REMARK  128  A    between atoms: _352  and  _355
REMARK  129  A    between atoms: _357  and  _359
REMARK  130  A    between atoms: _359  and  _360
REMARK  131  A    between atoms: _359  and  _362
REMARK  132  A    between atoms: _365  and  _367
REMARK  133  A    between atoms: _367  and  _368
REMARK  134  A    between atoms: _367  and  _370
REMARK  135  A    between atoms: _370  and  _371
REMARK  136  A    between atoms: _381  and  _383
REMARK  137  A    between atoms: _383  and  _384
REMARK  138  A    between atoms: _383  and  _386
REMARK  139  A    between atoms: _386  and  _387
REMARK  140  A    between atoms: _392  and  _394
REMARK  141  A    between atoms: _394  and  _395
REMARK  142  A    between atoms: _394  and  _397
REMARK  143  A    between atoms: _397  and  _398
REMARK  144  A    between atoms: _398  and  _399
REMARK  145  A    between atoms: _399  and  _400
REMARK                            x       y       z     vdW  Elec       q    Type
REMARK                         _______ _______ _______ _____ _____    ______ ____
ROOT
ATOM      1  C   GLU A   1      -5.817  -8.554  21.025  0.00  0.00    +0.238 C 
ATOM      2  O   GLU A   1      -5.046  -9.109  21.808  0.00  0.00    -0.274 OA
ATOM      3  N   HIS A   2      -7.008  -8.111  21.416  0.00  0.00    -0.298 N 
ATOM      4  H   HIS A   2      -7.626  -7.584  20.766  0.00  0.00    +0.150 HD
ENDROOT
BRANCH   1   5
ATOM      5  CA  GLU A   1      -5.427  -8.342  19.565  0.00  0.00    +0.145 C 
BRANCH   5   6
ATOM      6  N   GLU A   1      -6.457  -8.991  18.771  0.00  0.00    -0.238 NA
ATOM      7  H   GLU A   1      -7.312  -8.452  18.526  0.00  0.00    +0.142 HD
ENDBRANCH   5   6
BRANCH   5   8
ATOM      8  CB  GLU A   1      -5.368  -6.854  19.188  0.00  0.00    +0.038 C 
BRANCH   8   9
ATOM      9  CG  GLU A   1      -4.982  -6.692  17.714  0.00  0.00    +0.116 C 
BRANCH   9  10
ATOM     10  CD  GLU A   1      -4.297  -5.373  17.435  0.00  0.00    +0.365 C 
ATOM     11  OE2 GLU A   1      -4.931  -4.309  17.626  0.00  0.00    -0.246 OA
ATOM     12  OE1 GLU A   1      -3.126  -5.415  17.035  0.00  0.00    -0.246 OA
ENDBRANCH   9  10
ENDBRANCH   8   9
ENDBRANCH   5   8
ENDBRANCH   1   5
BRANCH   3  13
ATOM     13  CA  HIS A   2      -7.417  -8.389  22.784  0.00  0.00    +0.143 C 
BRANCH  13  14
ATOM     14  C   HIS A   2      -7.743  -9.864  22.841  0.00  0.00    +0.227 C 
ATOM     15  O   HIS A   2      -8.031 -10.486  21.801  0.00  0.00    -0.286 OA
ENDBRANCH  13  14
BRANCH  13  16
ATOM     16  CB  HIS A   2      -8.640  -7.567  23.183  0.00  0.00    +0.075 C 
BRANCH  16  17
ATOM     17  CG  HIS A   2      -8.344  -6.110  23.328  0.00  0.00    +0.082 A 
ATOM     18  CD2 HIS A   2      -7.851  -5.404  24.376  0.00  0.00    +0.115 A 
ATOM     19  NE2 HIS A   2      -7.640  -4.122  23.937  0.00  0.00    -0.221 NA
ATOM     20  CE1 HIS A   2      -7.995  -4.040  22.664  0.00  0.00    +0.199 A 
ATOM     21  ND1 HIS A   2      -8.428  -5.227  22.272  0.00  0.00    -0.227 NA
ENDBRANCH  16  17
ENDBRANCH  13  16
ENDBRANCH   3  13
TORSDOF 9
REMARK  Name = ../refined-set-2016/4mo8/4mo8_pocket.pdb
REMARK  145 active torsions:
REMARK  status: ('A' for Active; 'I' for Inactive)
REMARK    1  A    between atoms: _1  and  _3
REMARK    2  A    between atoms: _3  and  _4
REMARK    3  A    between atoms: _3  and  _6
REMARK    4  A    between atoms: _6  and  _7
REMARK    5  A    between atoms: _17  and  _19
REMARK    6  A    between atoms: _19  and  _20
REMARK    7  A    between atoms: _19  and  _22
REMARK    8  A    between atoms: _22  and  _23
REMARK    9  A    between atoms: _28  and  _29
REMARK   10  A    between atoms: _31  and  _33
REMARK   11  A    between atoms: _33  and  _34
REMARK   12  A    between atoms: _33  and  _36
REMARK   13  A    between atoms: _36  and  _37
REMARK   14  A    between atoms: _40  and  _41
REMARK   15  A    between atoms: _46  and  _48
REMARK   16  A    between atoms: _48  and  _49
REMARK   17  A    between atoms: _48  and  _51
REMARK   18  A    between atoms: _51  and  _52
REMARK   19  A    between atoms: _57  and  _59
REMARK   20  A    between atoms: _59  and  _60
REMARK   21  A    between atoms: _59  and  _62
REMARK   22  A    between atoms: _62  and  _63
REMARK   23  A    between atoms: _68  and  _70
REMARK   24  A    between atoms: _70  and  _71
REMARK   25  A    between atoms: _74  and  _76
REMARK   26  A    between atoms: _76  and  _77
REMARK   27  A    between atoms: _76  and  _79
REMARK   28  A    between atoms: _79  and  _80
REMARK   29  A    between atoms: _85  and  _87
REMARK   30  A    between atoms: _87  and  _88
REMARK   31  A    between atoms: _87  and  _90
REMARK   32  A    between atoms: _90  and  _91
REMARK   33  A    between atoms: _94  and  _96
REMARK   34  A    between atoms: _96  and  _97
REMARK   35  A    between atoms: _96  and  _99
REMARK   36  A    between atoms: _99  and  _100
REMARK   37  A    between atoms: _100  and  _101
REMARK   38  A    between atoms: _106  and  _108
REMARK   39  A    between atoms: _108  and  _109
REMARK   40  A    between atoms: _108  and  _111
REMARK   41  A    between atoms: _111  and  _112
REMARK   42  A    between atoms: _118  and  _120
REMARK   43  A    between atoms: _131  and  _134
REMARK   44  A    between atoms: _134  and  _135
REMARK   45  A    between atoms: _143  and  _144
REMARK   46  A    between atoms: _152  and  _154
REMARK   47  A    between atoms: _154  and  _155
REMARK   48  A    between atoms: _154  and  _157
REMARK   49  A    between atoms: _157  and  _158
REMARK   50  A    between atoms: _158  and  _159
REMARK   51  A    between atoms: _162  and  _164
REMARK   52  A    between atoms: _164  and  _165
REMARK   53  A    between atoms: _164  and  _167
REMARK   54  A    between atoms: _167  and  _168
REMARK   55  A    between atoms: _173  and  _175
REMARK   56  A    between atoms: _175  and  _176
REMARK   57  A    between atoms: _175  and  _178
REMARK   58  A    between atoms: _178  and  _179
REMARK   59  A    between atoms: _179  and  _180
REMARK   60  A    between atoms: _183  and  _185
REMARK   61  A    between atoms: _185  and  _186
REMARK   62  A    between atoms: _185  and  _188
REMARK   63  A    between atoms: _188  and  _189
REMARK   64  A    between atoms: _192  and  _194
REMARK   65  A    between atoms: _194  and  _195
REMARK   66  A    between atoms: _194  and  _197
REMARK   67  A    between atoms: _197  and  _198
REMARK   68  A    between atoms: _199  and  ZN_409
REMARK   69  A    between atoms: _203  and  _205
REMARK   70  A    between atoms: _205  and  _206
REMARK   71  A    between atoms: _205  and  _208
REMARK   72  A    between atoms: _208  and  _209
REMARK   73  A    between atoms: _212  and  _214
REMARK   74  A    between atoms: _214  and  _215
REMARK   75  A    between atoms: _214  and  _217
REMARK   76  A    between atoms: _220  and  _222
REMARK   77  A    between atoms: _222  and  _223
REMARK   78  A    between atoms: _222  and  _225
REMARK   79  A    between atoms: _225  and  _226
REMARK   80  A    between atoms: _231  and  _233
REMARK   81  A    between atoms: _233  and  _234
REMARK   82  A    between atoms: _233  and  _236
REMARK   83  A    between atoms: _236  and  _237
REMARK   84  A    between atoms: _243  and  _245
REMARK   85  A    between atoms: _245  and  _246
REMARK   86  A    between atoms: _245  and  _248
REMARK   87  A    between atoms: _251  and  _253
REMARK   88  A    between atoms: _253  and  _254
REMARK   89  A    between atoms: _253  and  _256
REMARK   90  A    between atoms: _256  and  _257
REMARK   91  A    between atoms: _260  and  _262
REMARK   92  A    between atoms: _262  and  _263
REMARK   93  A    between atoms: _266  and  _268
REMARK   94  A    between atoms: _268  and  _269
REMARK   95  A    between atoms: _268  and  _271
REMARK   96  A    between atoms: _274  and  _276
REMARK   97  A    between atoms: _276  and  _277
REMARK   98  A    between atoms: _276  and  _279
REMARK   99  A    between atoms: _279  and  _280
REMARK  100  A    between atoms: _283  and  _285
REMARK  101  A    between atoms: _285  and  _286
REMARK  102  A    between atoms: _285  and  _288
REMARK  103  A    between atoms: _288  and  _289
REMARK  104  A    between atoms: _291  and  _293
REMARK  105  A    between atoms: _293  and  _294
REMARK  106  A    between atoms: _293  and  _296
REMARK  107  A    between atoms: _296  and  _297
REMARK  108  A    between atoms: _300  and  _302
REMARK  109  A    between atoms: _302  and  _303
REMARK  110  A    between atoms: _302  and  _305
REMARK  111  A    between atoms: _305  and  _306
REMARK  112  A    between atoms: _309  and  _311
REMARK  113  A    between atoms: _311  and  _312
REMARK  114  A    between atoms: _311  and  _314
REMARK  115  A    between atoms: _314  and  _315
REMARK  116  A    between atoms: _319  and  _320
REMARK  117  A    between atoms: _326  and  _327
REMARK  118  A    between atoms: _332  and  _334
REMARK  119  A    between atoms: _334  and  _335
REMARK  120  A    between atoms: _334  and  _337
REMARK  121  A    between atoms: _337  and  _338
REMARK  122  A    between atoms: _341  and  _343
REMARK  123  A    between atoms: _343  and  _344
REMARK  124  A    between atoms: _343  and  _346
REMARK  125  A    between atoms: _346  and  _347
REMARK  126  A    between atoms: _350  and  _352
REMARK  127  A    between atoms: _352  and  _353
REMARK  128  A    between atoms: _352  and  _355
REMARK  129  A    between atoms: _357  and  _359
REMARK  130  A    between atoms: _359  and  _360
REMARK  131  A    between atoms: _359  and  _362
REMARK  132  A    between atoms: _365  and  _367
REMARK  133  A    between atoms: _367  and  _368
REMARK  134  A    between atoms: _367  and  _370
REMARK  135  A    between atoms: _370  and  _371
REMARK  136  A    between atoms: _381  and  _383
REMARK  137  A    between atoms: _383  and  _384
REMARK  138  A    between atoms: _383  and  _386
REMARK  139  A    between atoms: _386  and  _387
REMARK  140  A    between atoms: _392  and  _394
REMARK  141  A    between atoms: _394  and  _395
REMARK  142  A    between atoms: _394  and  _397
REMARK  143  A    between atoms: _397  and  _398
REMARK  144  A    between atoms: _398  and  _399
REMARK  145  A    between atoms: _399  and  _400
REMARK                            x       y       z     vdW  Elec       q    Type
REMARK                         _______ _______ _______ _____ _____    ______ ____
ROOT
ATOM      1  CB  PHE A   1      -7.649  12.549  13.968  0.00  0.00    +0.051 C 
ENDROOT
BRANCH   1   2
ATOM      2  CG  PHE A   1      -7.022  11.231  14.263  0.00  0.00    -0.020 A 
ATOM      3  CD2 PHE A   1      -7.728  10.245  14.952  0.00  0.00    -0.004 A 
ATOM      4  CE2 PHE A   1      -7.137   9.023  15.251  0.00  0.00    -0.000 A 
ATOM      5  CZ  PHE A   1      -5.821   8.777  14.859  0.00  0.00    -0.000 A 
ATOM      6  CE1 PHE A   1      -5.108   9.757  14.169  0.00  0.00    -0.000 A 
ATOM      7  CD1 PHE A   1      -5.719  10.978  13.877  0.00  0.00    -0.004 A 
ENDBRANCH   1   2
BRANCH   1   8
ATOM      8  CA  PHE A   1      -7.547  13.551  15.120  0.00  0.00    +0.137 C 
BRANCH   8   9
ATOM      9  N   PHE A   1      -8.172  14.804  14.734  0.00  0.00    -0.239 NA
ATOM     10  H   PHE A   1      -8.600  14.883  13.790  0.00  0.00    +0.142 HD
ENDBRANCH   8   9
BRANCH   8  11
ATOM     11  C   PHE A   1      -6.087  13.725  15.517  0.00  0.00    +0.224 C 
ATOM     12  O   PHE A   1      -5.647  13.168  16.517  0.00  0.00    -0.287 OA
ENDBRANCH   8  11
ENDBRANCH   1   8
TORSDOF 4
REMARK  Name = ../refined-set-2016/4mo8/4mo8_pocket.pdb
REMARK  145 active torsions:
REMARK  status: ('A' for Active; 'I' for Inactive)
REMARK    1  A    between atoms: _1  and  _3
REMARK    2  A    between atoms: _3  and  _4
REMARK    3  A    between atoms: _3  and  _6
REMARK    4  A    between atoms: _6  and  _7
REMARK    5  A    between atoms: _17  and  _19
REMARK    6  A    between atoms: _19  and  _20
REMARK    7  A    between atoms: _19  and  _22
REMARK    8  A    between atoms: _22  and  _23
REMARK    9  A    between atoms: _28  and  _29
REMARK   10  A    between atoms: _31  and  _33
REMARK   11  A    between atoms: _33  and  _34
REMARK   12  A    between atoms: _33  and  _36
REMARK   13  A    between atoms: _36  and  _37
REMARK   14  A    between atoms: _40  and  _41
REMARK   15  A    between atoms: _46  and  _48
REMARK   16  A    between atoms: _48  and  _49
REMARK   17  A    between atoms: _48  and  _51
REMARK   18  A    between atoms: _51  and  _52
REMARK   19  A    between atoms: _57  and  _59
REMARK   20  A    between atoms: _59  and  _60
REMARK   21  A    between atoms: _59  and  _62
REMARK   22  A    between atoms: _62  and  _63
REMARK   23  A    between atoms: _68  and  _70
REMARK   24  A    between atoms: _70  and  _71
REMARK   25  A    between atoms: _74  and  _76
REMARK   26  A    between atoms: _76  and  _77
REMARK   27  A    between atoms: _76  and  _79
REMARK   28  A    between atoms: _79  and  _80
REMARK   29  A    between atoms: _85  and  _87
REMARK   30  A    between atoms: _87  and  _88
REMARK   31  A    between atoms: _87  and  _90
REMARK   32  A    between atoms: _90  and  _91
REMARK   33  A    between atoms: _94  and  _96
REMARK   34  A    between atoms: _96  and  _97
REMARK   35  A    between atoms: _96  and  _99
REMARK   36  A    between atoms: _99  and  _100
REMARK   37  A    between atoms: _100  and  _101
REMARK   38  A    between atoms: _106  and  _108
REMARK   39  A    between atoms: _108  and  _109
REMARK   40  A    between atoms: _108  and  _111
REMARK   41  A    between atoms: _111  and  _112
REMARK   42  A    between atoms: _118  and  _120
REMARK   43  A    between atoms: _131  and  _134
REMARK   44  A    between atoms: _134  and  _135
REMARK   45  A    between atoms: _143  and  _144
REMARK   46  A    between atoms: _152  and  _154
REMARK   47  A    between atoms: _154  and  _155
REMARK   48  A    between atoms: _154  and  _157
REMARK   49  A    between atoms: _157  and  _158
REMARK   50  A    between atoms: _158  and  _159
REMARK   51  A    between atoms: _162  and  _164
REMARK   52  A    between atoms: _164  and  _165
REMARK   53  A    between atoms: _164  and  _167
REMARK   54  A    between atoms: _167  and  _168
REMARK   55  A    between atoms: _173  and  _175
REMARK   56  A    between atoms: _175  and  _176
REMARK   57  A    between atoms: _175  and  _178
REMARK   58  A    between atoms: _178  and  _179
REMARK   59  A    between atoms: _179  and  _180
REMARK   60  A    between atoms: _183  and  _185
REMARK   61  A    between atoms: _185  and  _186
REMARK   62  A    between atoms: _185  and  _188
REMARK   63  A    between atoms: _188  and  _189
REMARK   64  A    between atoms: _192  and  _194
REMARK   65  A    between atoms: _194  and  _195
REMARK   66  A    between atoms: _194  and  _197
REMARK   67  A    between atoms: _197  and  _198
REMARK   68  A    between atoms: _199  and  ZN_409
REMARK   69  A    between atoms: _203  and  _205
REMARK   70  A    between atoms: _205  and  _206
REMARK   71  A    between atoms: _205  and  _208
REMARK   72  A    between atoms: _208  and  _209
REMARK   73  A    between atoms: _212  and  _214
REMARK   74  A    between atoms: _214  and  _215
REMARK   75  A    between atoms: _214  and  _217
REMARK   76  A    between atoms: _220  and  _222
REMARK   77  A    between atoms: _222  and  _223
REMARK   78  A    between atoms: _222  and  _225
REMARK   79  A    between atoms: _225  and  _226
REMARK   80  A    between atoms: _231  and  _233
REMARK   81  A    between atoms: _233  and  _234
REMARK   82  A    between atoms: _233  and  _236
REMARK   83  A    between atoms: _236  and  _237
REMARK   84  A    between atoms: _243  and  _245
REMARK   85  A    between atoms: _245  and  _246
REMARK   86  A    between atoms: _245  and  _248
REMARK   87  A    between atoms: _251  and  _253
REMARK   88  A    between atoms: _253  and  _254
REMARK   89  A    between atoms: _253  and  _256
REMARK   90  A    between atoms: _256  and  _257
REMARK   91  A    between atoms: _260  and  _262
REMARK   92  A    between atoms: _262  and  _263
REMARK   93  A    between atoms: _266  and  _268
REMARK   94  A    between atoms: _268  and  _269
REMARK   95  A    between atoms: _268  and  _271
REMARK   96  A    between atoms: _274  and  _276
REMARK   97  A    between atoms: _276  and  _277
REMARK   98  A    between atoms: _276  and  _279
REMARK   99  A    between atoms: _279  and  _280
REMARK  100  A    between atoms: _283  and  _285
REMARK  101  A    between atoms: _285  and  _286
REMARK  102  A    between atoms: _285  and  _288
REMARK  103  A    between atoms: _288  and  _289
REMARK  104  A    between atoms: _291  and  _293
REMARK  105  A    between atoms: _293  and  _294
REMARK  106  A    between atoms: _293  and  _296
REMARK  107  A    between atoms: _296  and  _297
REMARK  108  A    between atoms: _300  and  _302
REMARK  109  A    between atoms: _302  and  _303
REMARK  110  A    between atoms: _302  and  _305
REMARK  111  A    between atoms: _305  and  _306
REMARK  112  A    between atoms: _309  and  _311
REMARK  113  A    between atoms: _311  and  _312
REMARK  114  A    between atoms: _311  and  _314
REMARK  115  A    between atoms: _314  and  _315
REMARK  116  A    between atoms: _319  and  _320
REMARK  117  A    between atoms: _326  and  _327
REMARK  118  A    between atoms: _332  and  _334
REMARK  119  A    between atoms: _334  and  _335
REMARK  120  A    between atoms: _334  and  _337
REMARK  121  A    between atoms: _337  and  _338
REMARK  122  A    between atoms: _341  and  _343
REMARK  123  A    between atoms: _343  and  _344
REMARK  124  A    between atoms: _343  and  _346
REMARK  125  A    between atoms: _346  and  _347
REMARK  126  A    between atoms: _350  and  _352
REMARK  127  A    between atoms: _352  and  _353
REMARK  128  A    between atoms: _352  and  _355
REMARK  129  A    between atoms: _357  and  _359
REMARK  130  A    between atoms: _359  and  _360
REMARK  131  A    between atoms: _359  and  _362
REMARK  132  A    between atoms: _365  and  _367
REMARK  133  A    between atoms: _367  and  _368
REMARK  134  A    between atoms: _367  and  _370
REMARK  135  A    between atoms: _370  and  _371
REMARK  136  A    between atoms: _381  and  _383
REMARK  137  A    between atoms: _383  and  _384
REMARK  138  A    between atoms: _383  and  _386
REMARK  139  A    between atoms: _386  and  _387
REMARK  140  A    between atoms: _392  and  _394
REMARK  141  A    between atoms: _394  and  _395
REMARK  142  A    between atoms: _394  and  _397
REMARK  143  A    between atoms: _397  and  _398
REMARK  144  A    between atoms: _398  and  _399
REMARK  145  A    between atoms: _399  and  _400
REMARK                            x       y       z     vdW  Elec       q    Type
REMARK                         _______ _______ _______ _____ _____    ______ ____
ROOT
ATOM      1  CA  VAL A   1      -3.864  11.394  19.760  0.00  0.00    +0.133 C 
ENDROOT
BRANCH   1   2
ATOM      2  CB  VAL A   1      -3.229  10.696  18.512  0.00  0.00    +0.023 C 
ATOM      3  CG2 VAL A   1      -2.316  11.646  17.756  0.00  0.00    +0.002 C 
ATOM      4  CG1 VAL A   1      -4.338  10.159  17.603  0.00  0.00    +0.002 C 
ENDBRANCH   1   2
BRANCH   1   5
ATOM      5  N   VAL A   1      -4.785  12.481  19.395  0.00  0.00    -0.239 NA
ATOM      6  H   VAL A   1      -4.822  12.835  18.418  0.00  0.00    +0.142 HD
ENDBRANCH   1   5
BRANCH   1   7
ATOM      7  C   VAL A   1      -2.768  11.818  20.731  0.00  0.00    +0.224 C 
ATOM      8  O   VAL A   1      -2.092  10.964  21.309  0.00  0.00    -0.287 OA
ENDBRANCH   1   7
TORSDOF 3
REMARK  Name = ../refined-set-2016/4mo8/4mo8_pocket.pdb
REMARK  145 active torsions:
REMARK  status: ('A' for Active; 'I' for Inactive)
REMARK    1  A    between atoms: _1  and  _3
REMARK    2  A    between atoms: _3  and  _4
REMARK    3  A    between atoms: _3  and  _6
REMARK    4  A    between atoms: _6  and  _7
REMARK    5  A    between atoms: _17  and  _19
REMARK    6  A    between atoms: _19  and  _20
REMARK    7  A    between atoms: _19  and  _22
REMARK    8  A    between atoms: _22  and  _23
REMARK    9  A    between atoms: _28  and  _29
REMARK   10  A    between atoms: _31  and  _33
REMARK   11  A    between atoms: _33  and  _34
REMARK   12  A    between atoms: _33  and  _36
REMARK   13  A    between atoms: _36  and  _37
REMARK   14  A    between atoms: _40  and  _41
REMARK   15  A    between atoms: _46  and  _48
REMARK   16  A    between atoms: _48  and  _49
REMARK   17  A    between atoms: _48  and  _51
REMARK   18  A    between atoms: _51  and  _52
REMARK   19  A    between atoms: _57  and  _59
REMARK   20  A    between atoms: _59  and  _60
REMARK   21  A    between atoms: _59  and  _62
REMARK   22  A    between atoms: _62  and  _63
REMARK   23  A    between atoms: _68  and  _70
REMARK   24  A    between atoms: _70  and  _71
REMARK   25  A    between atoms: _74  and  _76
REMARK   26  A    between atoms: _76  and  _77
REMARK   27  A    between atoms: _76  and  _79
REMARK   28  A    between atoms: _79  and  _80
REMARK   29  A    between atoms: _85  and  _87
REMARK   30  A    between atoms: _87  and  _88
REMARK   31  A    between atoms: _87  and  _90
REMARK   32  A    between atoms: _90  and  _91
REMARK   33  A    between atoms: _94  and  _96
REMARK   34  A    between atoms: _96  and  _97
REMARK   35  A    between atoms: _96  and  _99
REMARK   36  A    between atoms: _99  and  _100
REMARK   37  A    between atoms: _100  and  _101
REMARK   38  A    between atoms: _106  and  _108
REMARK   39  A    between atoms: _108  and  _109
REMARK   40  A    between atoms: _108  and  _111
REMARK   41  A    between atoms: _111  and  _112
REMARK   42  A    between atoms: _118  and  _120
REMARK   43  A    between atoms: _131  and  _134
REMARK   44  A    between atoms: _134  and  _135
REMARK   45  A    between atoms: _143  and  _144
REMARK   46  A    between atoms: _152  and  _154
REMARK   47  A    between atoms: _154  and  _155
REMARK   48  A    between atoms: _154  and  _157
REMARK   49  A    between atoms: _157  and  _158
REMARK   50  A    between atoms: _158  and  _159
REMARK   51  A    between atoms: _162  and  _164
REMARK   52  A    between atoms: _164  and  _165
REMARK   53  A    between atoms: _164  and  _167
REMARK   54  A    between atoms: _167  and  _168
REMARK   55  A    between atoms: _173  and  _175
REMARK   56  A    between atoms: _175  and  _176
REMARK   57  A    between atoms: _175  and  _178
REMARK   58  A    between atoms: _178  and  _179
REMARK   59  A    between atoms: _179  and  _180
REMARK   60  A    between atoms: _183  and  _185
REMARK   61  A    between atoms: _185  and  _186
REMARK   62  A    between atoms: _185  and  _188
REMARK   63  A    between atoms: _188  and  _189
REMARK   64  A    between atoms: _192  and  _194
REMARK   65  A    between atoms: _194  and  _195
REMARK   66  A    between atoms: _194  and  _197
REMARK   67  A    between atoms: _197  and  _198
REMARK   68  A    between atoms: _199  and  ZN_409
REMARK   69  A    between atoms: _203  and  _205
REMARK   70  A    between atoms: _205  and  _206
REMARK   71  A    between atoms: _205  and  _208
REMARK   72  A    between atoms: _208  and  _209
REMARK   73  A    between atoms: _212  and  _214
REMARK   74  A    between atoms: _214  and  _215
REMARK   75  A    between atoms: _214  and  _217
REMARK   76  A    between atoms: _220  and  _222
REMARK   77  A    between atoms: _222  and  _223
REMARK   78  A    between atoms: _222  and  _225
REMARK   79  A    between atoms: _225  and  _226
REMARK   80  A    between atoms: _231  and  _233
REMARK   81  A    between atoms: _233  and  _234
REMARK   82  A    between atoms: _233  and  _236
REMARK   83  A    between atoms: _236  and  _237
REMARK   84  A    between atoms: _243  and  _245
REMARK   85  A    between atoms: _245  and  _246
REMARK   86  A    between atoms: _245  and  _248
REMARK   87  A    between atoms: _251  and  _253
REMARK   88  A    between atoms: _253  and  _254
REMARK   89  A    between atoms: _253  and  _256
REMARK   90  A    between atoms: _256  and  _257
REMARK   91  A    between atoms: _260  and  _262
REMARK   92  A    between atoms: _262  and  _263
REMARK   93  A    between atoms: _266  and  _268
REMARK   94  A    between atoms: _268  and  _269
REMARK   95  A    between atoms: _268  and  _271
REMARK   96  A    between atoms: _274  and  _276
REMARK   97  A    between atoms: _276  and  _277
REMARK   98  A    between atoms: _276  and  _279
REMARK   99  A    between atoms: _279  and  _280
REMARK  100  A    between atoms: _283  and  _285
REMARK  101  A    between atoms: _285  and  _286
REMARK  102  A    between atoms: _285  and  _288
REMARK  103  A    between atoms: _288  and  _289
REMARK  104  A    between atoms: _291  and  _293
REMARK  105  A    between atoms: _293  and  _294
REMARK  106  A    between atoms: _293  and  _296
REMARK  107  A    between atoms: _296  and  _297
REMARK  108  A    between atoms: _300  and  _302
REMARK  109  A    between atoms: _302  and  _303
REMARK  110  A    between atoms: _302  and  _305
REMARK  111  A    between atoms: _305  and  _306
REMARK  112  A    between atoms: _309  and  _311
REMARK  113  A    between atoms: _311  and  _312
REMARK  114  A    between atoms: _311  and  _314
REMARK  115  A    between atoms: _314  and  _315
REMARK  116  A    between atoms: _319  and  _320
REMARK  117  A    between atoms: _326  and  _327
REMARK  118  A    between atoms: _332  and  _334
REMARK  119  A    between atoms: _334  and  _335
REMARK  120  A    between atoms: _334  and  _337
REMARK  121  A    between atoms: _337  and  _338
REMARK  122  A    between atoms: _341  and  _343
REMARK  123  A    between atoms: _343  and  _344
REMARK  124  A    between atoms: _343  and  _346
REMARK  125  A    between atoms: _346  and  _347
REMARK  126  A    between atoms: _350  and  _352
REMARK  127  A    between atoms: _352  and  _353
REMARK  128  A    between atoms: _352  and  _355
REMARK  129  A    between atoms: _357  and  _359
REMARK  130  A    between atoms: _359  and  _360
REMARK  131  A    between atoms: _359  and  _362
REMARK  132  A    between atoms: _365  and  _367
REMARK  133  A    between atoms: _367  and  _368
REMARK  134  A    between atoms: _367  and  _370
REMARK  135  A    between atoms: _370  and  _371
REMARK  136  A    between atoms: _381  and  _383
REMARK  137  A    between atoms: _383  and  _384
REMARK  138  A    between atoms: _383  and  _386
REMARK  139  A    between atoms: _386  and  _387
REMARK  140  A    between atoms: _392  and  _394
REMARK  141  A    between atoms: _394  and  _395
REMARK  142  A    between atoms: _394  and  _397
REMARK  143  A    between atoms: _397  and  _398
REMARK  144  A    between atoms: _398  and  _399
REMARK  145  A    between atoms: _399  and  _400
REMARK                            x       y       z     vdW  Elec       q    Type
REMARK                         _______ _______ _______ _____ _____    ______ ____
ROOT
ATOM      1  C   ALA A   2     -12.264   4.934  20.847  0.00  0.00    +0.241 C 
ATOM      2  N   VAL A   3     -11.808   3.715  21.111  0.00  0.00    -0.297 N 
ATOM      3  H   VAL A   3     -11.440   3.480  22.055  0.00  0.00    +0.150 HD
ATOM      4  O   ALA A   2     -12.637   5.265  19.715  0.00  0.00    -0.273 OA
ENDROOT
BRANCH   1   5
ATOM      5  CA  ALA A   2     -12.229   5.955  21.981  0.00  0.00    +0.149 C 
ATOM      6  CB  ALA A   2     -13.650   6.494  22.291  0.00  0.00    +0.031 C 
BRANCH   5   9
ATOM      7  C   LEU A   1     -10.369   7.517  22.079  0.00  0.00    +0.238 C 
ATOM      8  O   LEU A   1     -10.144   7.265  23.253  0.00  0.00    -0.274 OA
ATOM      9  N   ALA A   2     -11.382   6.987  21.401  0.00  0.00    -0.297 N 
ATOM     10  H   ALA A   2     -11.574   7.317  20.434  0.00  0.00    +0.150 HD
BRANCH   7  11
ATOM     11  CA  LEU A   1      -9.507   8.498  21.313  0.00  0.00    +0.145 C 
BRANCH  11  12
ATOM     12  N   LEU A   1      -8.810   9.450  22.179  0.00  0.00    -0.238 NA
ATOM     13  H   LEU A   1      -8.192   9.101  22.939  0.00  0.00    +0.142 HD
ENDBRANCH  11  12
BRANCH  11  14
ATOM     14  CB  LEU A   1      -8.494   7.678  20.496  0.00  0.00    +0.026 C 
BRANCH  14  15
ATOM     15  CG  LEU A   1      -7.544   8.363  19.507  0.00  0.00    +0.002 C 
ATOM     16  CD2 LEU A   1      -6.851   7.284  18.683  0.00  0.00    +0.000 C 
ATOM     17  CD1 LEU A   1      -8.278   9.334  18.596  0.00  0.00    +0.000 C 
ENDBRANCH  14  15
ENDBRANCH  11  14
ENDBRANCH   7  11
ENDBRANCH   5   9
ENDBRANCH   1   5
BRANCH   2  18
ATOM     18  CA  VAL A   3     -11.834   2.714  20.053  0.00  0.00    +0.149 C 
BRANCH  18  19
ATOM     19  C   VAL A   3     -12.778   1.607  20.504  0.00  0.00    +0.241 C 
ATOM     20  O   VAL A   3     -12.624   1.049  21.591  0.00  0.00    -0.273 OA
ATOM     21  N   LEU A   4     -13.766   1.313  19.665  0.00  0.00    -0.298 N 
ATOM     22  H   LEU A   4     -13.842   1.845  18.774  0.00  0.00    +0.150 HD
BRANCH  21  23
ATOM     23  CA  LEU A   4     -14.751   0.269  19.948  0.00  0.00    +0.137 C 
BRANCH  23  24
ATOM     24  C   LEU A   4     -14.210  -0.988  19.279  0.00  0.00    +0.227 C 
ATOM     25  O   LEU A   4     -14.039  -0.998  18.074  0.00  0.00    -0.286 OA
ENDBRANCH  23  24
BRANCH  23  26
ATOM     26  CB  LEU A   4     -16.099   0.671  19.342  0.00  0.00    +0.028 C 
BRANCH  26  27
ATOM     27  CG  LEU A   4     -17.275  -0.295  19.467  0.00  0.00    +0.002 C 
ATOM     28  CD2 LEU A   4     -17.519  -0.568  20.956  0.00  0.00    +0.000 C 
ATOM     29  CD1 LEU A   4     -18.506   0.283  18.801  0.00  0.00    +0.000 C 
ENDBRANCH  26  27
ENDBRANCH  23  26
ENDBRANCH  21  23
ENDBRANCH  18  19
BRANCH  18  30
ATOM     30  CB  VAL A   3     -10.430   2.109  19.750  0.00  0.00    +0.027 C 
ATOM     31  CG2 VAL A   3      -9.449   3.205  19.376  0.00  0.00    +0.002 C 
ATOM     32  CG1 VAL A   3     -10.531   1.107  18.583  0.00  0.00    +0.002 C 
ENDBRANCH  18  30
ENDBRANCH   2  18
TORSDOF 13
REMARK  Name = ../refined-set-2016/4mo8/4mo8_pocket.pdb
REMARK  145 active torsions:
REMARK  status: ('A' for Active; 'I' for Inactive)
REMARK    1  A    between atoms: _1  and  _3
REMARK    2  A    between atoms: _3  and  _4
REMARK    3  A    between atoms: _3  and  _6
REMARK    4  A    between atoms: _6  and  _7
REMARK    5  A    between atoms: _17  and  _19
REMARK    6  A    between atoms: _19  and  _20
REMARK    7  A    between atoms: _19  and  _22
REMARK    8  A    between atoms: _22  and  _23
REMARK    9  A    between atoms: _28  and  _29
REMARK   10  A    between atoms: _31  and  _33
REMARK   11  A    between atoms: _33  and  _34
REMARK   12  A    between atoms: _33  and  _36
REMARK   13  A    between atoms: _36  and  _37
REMARK   14  A    between atoms: _40  and  _41
REMARK   15  A    between atoms: _46  and  _48
REMARK   16  A    between atoms: _48  and  _49
REMARK   17  A    between atoms: _48  and  _51
REMARK   18  A    between atoms: _51  and  _52
REMARK   19  A    between atoms: _57  and  _59
REMARK   20  A    between atoms: _59  and  _60
REMARK   21  A    between atoms: _59  and  _62
REMARK   22  A    between atoms: _62  and  _63
REMARK   23  A    between atoms: _68  and  _70
REMARK   24  A    between atoms: _70  and  _71
REMARK   25  A    between atoms: _74  and  _76
REMARK   26  A    between atoms: _76  and  _77
REMARK   27  A    between atoms: _76  and  _79
REMARK   28  A    between atoms: _79  and  _80
REMARK   29  A    between atoms: _85  and  _87
REMARK   30  A    between atoms: _87  and  _88
REMARK   31  A    between atoms: _87  and  _90
REMARK   32  A    between atoms: _90  and  _91
REMARK   33  A    between atoms: _94  and  _96
REMARK   34  A    between atoms: _96  and  _97
REMARK   35  A    between atoms: _96  and  _99
REMARK   36  A    between atoms: _99  and  _100
REMARK   37  A    between atoms: _100  and  _101
REMARK   38  A    between atoms: _106  and  _108
REMARK   39  A    between atoms: _108  and  _109
REMARK   40  A    between atoms: _108  and  _111
REMARK   41  A    between atoms: _111  and  _112
REMARK   42  A    between atoms: _118  and  _120
REMARK   43  A    between atoms: _131  and  _134
REMARK   44  A    between atoms: _134  and  _135
REMARK   45  A    between atoms: _143  and  _144
REMARK   46  A    between atoms: _152  and  _154
REMARK   47  A    between atoms: _154  and  _155
REMARK   48  A    between atoms: _154  and  _157
REMARK   49  A    between atoms: _157  and  _158
REMARK   50  A    between atoms: _158  and  _159
REMARK   51  A    between atoms: _162  and  _164
REMARK   52  A    between atoms: _164  and  _165
REMARK   53  A    between atoms: _164  and  _167
REMARK   54  A    between atoms: _167  and  _168
REMARK   55  A    between atoms: _173  and  _175
REMARK   56  A    between atoms: _175  and  _176
REMARK   57  A    between atoms: _175  and  _178
REMARK   58  A    between atoms: _178  and  _179
REMARK   59  A    between atoms: _179  and  _180
REMARK   60  A    between atoms: _183  and  _185
REMARK   61  A    between atoms: _185  and  _186
REMARK   62  A    between atoms: _185  and  _188
REMARK   63  A    between atoms: _188  and  _189
REMARK   64  A    between atoms: _192  and  _194
REMARK   65  A    between atoms: _194  and  _195
REMARK   66  A    between atoms: _194  and  _197
REMARK   67  A    between atoms: _197  and  _198
REMARK   68  A    between atoms: _199  and  ZN_409
REMARK   69  A    between atoms: _203  and  _205
REMARK   70  A    between atoms: _205  and  _206
REMARK   71  A    between atoms: _205  and  _208
REMARK   72  A    between atoms: _208  and  _209
REMARK   73  A    between atoms: _212  and  _214
REMARK   74  A    between atoms: _214  and  _215
REMARK   75  A    between atoms: _214  and  _217
REMARK   76  A    between atoms: _220  and  _222
REMARK   77  A    between atoms: _222  and  _223
REMARK   78  A    between atoms: _222  and  _225
REMARK   79  A    between atoms: _225  and  _226
REMARK   80  A    between atoms: _231  and  _233
REMARK   81  A    between atoms: _233  and  _234
REMARK   82  A    between atoms: _233  and  _236
REMARK   83  A    between atoms: _236  and  _237
REMARK   84  A    between atoms: _243  and  _245
REMARK   85  A    between atoms: _245  and  _246
REMARK   86  A    between atoms: _245  and  _248
REMARK   87  A    between atoms: _251  and  _253
REMARK   88  A    between atoms: _253  and  _254
REMARK   89  A    between atoms: _253  and  _256
REMARK   90  A    between atoms: _256  and  _257
REMARK   91  A    between atoms: _260  and  _262
REMARK   92  A    between atoms: _262  and  _263
REMARK   93  A    between atoms: _266  and  _268
REMARK   94  A    between atoms: _268  and  _269
REMARK   95  A    between atoms: _268  and  _271
REMARK   96  A    between atoms: _274  and  _276
REMARK   97  A    between atoms: _276  and  _277
REMARK   98  A    between atoms: _276  and  _279
REMARK   99  A    between atoms: _279  and  _280
REMARK  100  A    between atoms: _283  and  _285
REMARK  101  A    between atoms: _285  and  _286
REMARK  102  A    between atoms: _285  and  _288
REMARK  103  A    between atoms: _288  and  _289
REMARK  104  A    between atoms: _291  and  _293
REMARK  105  A    between atoms: _293  and  _294
REMARK  106  A    between atoms: _293  and  _296
REMARK  107  A    between atoms: _296  and  _297
REMARK  108  A    between atoms: _300  and  _302
REMARK  109  A    between atoms: _302  and  _303
REMARK  110  A    between atoms: _302  and  _305
REMARK  111  A    between atoms: _305  and  _306
REMARK  112  A    between atoms: _309  and  _311
REMARK  113  A    between atoms: _311  and  _312
REMARK  114  A    between atoms: _311  and  _314
REMARK  115  A    between atoms: _314  and  _315
REMARK  116  A    between atoms: _319  and  _320
REMARK  117  A    between atoms: _326  and  _327
REMARK  118  A    between atoms: _332  and  _334
REMARK  119  A    between atoms: _334  and  _335
REMARK  120  A    between atoms: _334  and  _337
REMARK  121  A    between atoms: _337  and  _338
REMARK  122  A    between atoms: _341  and  _343
REMARK  123  A    between atoms: _343  and  _344
REMARK  124  A    between atoms: _343  and  _346
REMARK  125  A    between atoms: _346  and  _347
REMARK  126  A    between atoms: _350  and  _352
REMARK  127  A    between atoms: _352  and  _353
REMARK  128  A    between atoms: _352  and  _355
REMARK  129  A    between atoms: _357  and  _359
REMARK  130  A    between atoms: _359  and  _360
REMARK  131  A    between atoms: _359  and  _362
REMARK  132  A    between atoms: _365  and  _367
REMARK  133  A    between atoms: _367  and  _368
REMARK  134  A    between atoms: _367  and  _370
REMARK  135  A    between atoms: _370  and  _371
REMARK  136  A    between atoms: _381  and  _383
REMARK  137  A    between atoms: _383  and  _384
REMARK  138  A    between atoms: _383  and  _386
REMARK  139  A    between atoms: _386  and  _387
REMARK  140  A    between atoms: _392  and  _394
REMARK  141  A    between atoms: _394  and  _395
REMARK  142  A    between atoms: _394  and  _397
REMARK  143  A    between atoms: _397  and  _398
REMARK  144  A    between atoms: _398  and  _399
REMARK  145  A    between atoms: _399  and  _400
REMARK                            x       y       z     vdW  Elec       q    Type
REMARK                         _______ _______ _______ _____ _____    ______ ____
ROOT
ATOM      1  C   THR A   4       1.077   1.265  16.420  0.00  0.00    +0.246 C 
ATOM      2  O   THR A   4       0.605   2.195  17.092  0.00  0.00    -0.273 OA
ATOM      3  N   PRO A   5       2.325   1.292  15.921  0.00  0.00    -0.272 N 
ATOM      4  CA  PRO A   5       3.164   2.470  16.142  0.00  0.00    +0.152 C 
ATOM      5  CB  PRO A   5       4.334   2.217  15.200  0.00  0.00    +0.031 C 
ATOM      6  CG  PRO A   5       4.550   0.732  15.337  0.00  0.00    +0.024 C 
ATOM      7  CD  PRO A   5       3.093   0.196  15.290  0.00  0.00    +0.094 C 
ENDROOT
BRANCH   4   8
ATOM      8  C   PRO A   5       2.287   3.630  15.652  0.00  0.00    +0.244 C 
ATOM      9  N   PRO A   6       2.403   4.825  16.244  0.00  0.00    -0.272 N 
ATOM     10  CA  PRO A   6       3.258   5.297  17.336  0.00  0.00    +0.152 C 
ATOM     11  CB  PRO A   6       3.166   6.825  17.203  0.00  0.00    +0.031 C 
ATOM     12  CG  PRO A   6       1.758   7.025  16.733  0.00  0.00    +0.024 C 
ATOM     13  CD  PRO A   6       1.604   5.942  15.684  0.00  0.00    +0.094 C 
ATOM     14  O   PRO A   5       1.524   3.462  14.684  0.00  0.00    -0.273 OA
BRANCH  10  15
ATOM     15  C   PRO A   6       2.927   4.807  18.750  0.00  0.00    +0.241 C 
ATOM     16  O   PRO A   6       3.552   5.245  19.712  0.00  0.00    -0.273 OA
ATOM     17  N   LEU A   7       1.936   3.918  18.868  0.00  0.00    -0.297 N 
ATOM     18  H   LEU A   7       1.409   3.640  18.016  0.00  0.00    +0.150 HD
BRANCH  17  19
ATOM     19  CA  LEU A   7       1.567   3.324  20.147  0.00  0.00    +0.149 C 
BRANCH  19  20
ATOM     20  C   LEU A   7       1.223   4.342  21.236  0.00  0.00    +0.241 C 
ATOM     21  O   LEU A   7       1.382   4.060  22.426  0.00  0.00    -0.273 OA
ATOM     22  N   LEU A   8       0.727   5.507  20.826  0.00  0.00    -0.298 N 
ATOM     23  H   LEU A   8       0.586   5.672  19.809  0.00  0.00    +0.150 HD
BRANCH  22  24
ATOM     24  CA  LEU A   8       0.375   6.566  21.785  0.00  0.00    +0.137 C 
BRANCH  24  25
ATOM     25  C   LEU A   8      -0.672   6.107  22.808  0.00  0.00    +0.227 C 
ATOM     26  O   LEU A   8      -1.639   5.396  22.482  0.00  0.00    -0.286 OA
ENDBRANCH  24  25
BRANCH  24  27
ATOM     27  CB  LEU A   8      -0.116   7.811  21.035  0.00  0.00    +0.028 C 
BRANCH  27  28
ATOM     28  CG  LEU A   8       0.933   8.321  20.036  0.00  0.00    +0.002 C 
ATOM     29  CD2 LEU A   8       2.162   8.835  20.800  0.00  0.00    +0.000 C 
ATOM     30  CD1 LEU A   8       0.325   9.406  19.153  0.00  0.00    +0.000 C 
ENDBRANCH  27  28
ENDBRANCH  24  27
ENDBRANCH  22  24
ENDBRANCH  19  20
BRANCH  19  31
ATOM     31  CB  LEU A   7       2.705   2.408  20.626  0.00  0.00    +0.029 C 
BRANCH  31  32
ATOM     32  CG  LEU A   7       3.042   1.272  19.648  0.00  0.00    +0.002 C 
ATOM     33  CD2 LEU A   7       4.381   0.610  20.024  0.00  0.00    +0.000 C 
ATOM     34  CD1 LEU A   7       1.899   0.237  19.683  0.00  0.00    +0.000 C 
ENDBRANCH  31  32
ENDBRANCH  19  31
ENDBRANCH  17  19
ENDBRANCH  10  15
ENDBRANCH   4   8
BRANCH   1  35
ATOM     35  CA  THR A   4       0.249   0.031  16.124  0.00  0.00    +0.176 C 
BRANCH  35  38
ATOM     36  C   THR A   3      -0.880  -1.159  17.951  0.00  0.00    +0.243 C 
ATOM     37  O   THR A   3      -0.258  -2.207  17.742  0.00  0.00    -0.273 OA
ATOM     38  N   THR A   4      -0.749  -0.069  17.194  0.00  0.00    -0.295 N 
ATOM     39  H   THR A   4      -1.378   0.740  17.369  0.00  0.00    +0.150 HD
BRANCH  36  40
ATOM     40  CA  THR A   3      -1.898  -1.082  19.091  0.00  0.00    +0.176 C 
BRANCH  40  43
ATOM     41  C   LEU A   2      -2.191   1.185  19.916  0.00  0.00    +0.241 C 
ATOM     42  O   LEU A   2      -1.211   1.062  20.660  0.00  0.00    -0.273 OA
ATOM     43  N   THR A   3      -2.608   0.201  19.123  0.00  0.00    -0.295 N 
ATOM     44  H   THR A   3      -3.444   0.343  18.521  0.00  0.00    +0.150 HD
BRANCH  41  45
ATOM     45  CA  LEU A   2      -2.956   2.516  19.888  0.00  0.00    +0.149 C 
BRANCH  45  48
ATOM     46  C   SER A   1      -3.372   2.343  22.265  0.00  0.00    +0.241 C 
ATOM     47  O   SER A   1      -4.172   1.441  22.101  0.00  0.00    -0.274 OA
ATOM     48  N   LEU A   2      -2.784   2.982  21.258  0.00  0.00    -0.297 N 
ATOM     49  H   LEU A   2      -2.198   3.819  21.449  0.00  0.00    +0.150 HD
BRANCH  46  50
ATOM     50  CA  SER A   1      -2.994   2.809  23.655  0.00  0.00    +0.174 C 
BRANCH  50  51
ATOM     51  N   SER A   1      -3.713   2.119  24.718  0.00  0.00    -0.236 NA
ATOM     52  H   SER A   1      -3.873   1.094  24.646  0.00  0.00    +0.142 HD
ENDBRANCH  50  51
BRANCH  50  53
ATOM     53  CB  SER A   1      -1.505   2.514  23.801  0.00  0.00    +0.163 C 
BRANCH  53  54
ATOM     54  OG  SER A   1      -1.251   1.148  23.432  0.00  0.00    -0.380 OA
ATOM     55  H   SER A   1      -1.527   1.005  22.492  0.00  0.00    +0.211 HD
ENDBRANCH  53  54
ENDBRANCH  50  53
ENDBRANCH  46  50
ENDBRANCH  45  48
BRANCH  45  56
ATOM     56  CB  LEU A   2      -2.233   3.453  18.922  0.00  0.00    +0.029 C 
BRANCH  56  57
ATOM     57  CG  LEU A   2      -2.754   4.886  18.849  0.00  0.00    +0.002 C 
ATOM     58  CD2 LEU A   2      -4.228   4.872  18.407  0.00  0.00    +0.000 C 
ATOM     59  CD1 LEU A   2      -1.894   5.661  17.854  0.00  0.00    +0.000 C 
ENDBRANCH  56  57
ENDBRANCH  45  56
ENDBRANCH  41  45
ENDBRANCH  40  43
BRANCH  40  60
ATOM     60  CB  THR A   3      -2.843  -2.252  18.947  0.00  0.00    +0.137 C 
ATOM     61  CG2 THR A   3      -3.864  -2.267  20.101  0.00  0.00    +0.034 C 
BRANCH  60  62
ATOM     62  OG1 THR A   3      -3.501  -2.152  17.679  0.00  0.00    -0.382 OA
ATOM     63  HG1 THR A   3      -4.124  -2.914  17.571  0.00  0.00    +0.210 HD
ENDBRANCH  60  62
ENDBRANCH  40  60
ENDBRANCH  36  40
ENDBRANCH  35  38
BRANCH  35  64
ATOM     64  CB  THR A   4      -0.340   0.340  14.724  0.00  0.00    +0.137 C 
ATOM     65  CG2 THR A   4      -1.242  -0.792  14.251  0.00  0.00    +0.034 C 
BRANCH  64  66
ATOM     66  OG1 THR A   4      -1.075   1.588  14.769  0.00  0.00    -0.382 OA
ATOM     67  HG1 THR A   4      -0.465   2.320  15.038  0.00  0.00    +0.210 HD
ENDBRANCH  64  66
ENDBRANCH  35  64
ENDBRANCH   1  35
TORSDOF 26
REMARK  Name = ../refined-set-2016/4mo8/4mo8_pocket.pdb
REMARK  145 active torsions:
REMARK  status: ('A' for Active; 'I' for Inactive)
REMARK    1  A    between atoms: _1  and  _3
REMARK    2  A    between atoms: _3  and  _4
REMARK    3  A    between atoms: _3  and  _6
REMARK    4  A    between atoms: _6  and  _7
REMARK    5  A    between atoms: _17  and  _19
REMARK    6  A    between atoms: _19  and  _20
REMARK    7  A    between atoms: _19  and  _22
REMARK    8  A    between atoms: _22  and  _23
REMARK    9  A    between atoms: _28  and  _29
REMARK   10  A    between atoms: _31  and  _33
REMARK   11  A    between atoms: _33  and  _34
REMARK   12  A    between atoms: _33  and  _36
REMARK   13  A    between atoms: _36  and  _37
REMARK   14  A    between atoms: _40  and  _41
REMARK   15  A    between atoms: _46  and  _48
REMARK   16  A    between atoms: _48  and  _49
REMARK   17  A    between atoms: _48  and  _51
REMARK   18  A    between atoms: _51  and  _52
REMARK   19  A    between atoms: _57  and  _59
REMARK   20  A    between atoms: _59  and  _60
REMARK   21  A    between atoms: _59  and  _62
REMARK   22  A    between atoms: _62  and  _63
REMARK   23  A    between atoms: _68  and  _70
REMARK   24  A    between atoms: _70  and  _71
REMARK   25  A    between atoms: _74  and  _76
REMARK   26  A    between atoms: _76  and  _77
REMARK   27  A    between atoms: _76  and  _79
REMARK   28  A    between atoms: _79  and  _80
REMARK   29  A    between atoms: _85  and  _87
REMARK   30  A    between atoms: _87  and  _88
REMARK   31  A    between atoms: _87  and  _90
REMARK   32  A    between atoms: _90  and  _91
REMARK   33  A    between atoms: _94  and  _96
REMARK   34  A    between atoms: _96  and  _97
REMARK   35  A    between atoms: _96  and  _99
REMARK   36  A    between atoms: _99  and  _100
REMARK   37  A    between atoms: _100  and  _101
REMARK   38  A    between atoms: _106  and  _108
REMARK   39  A    between atoms: _108  and  _109
REMARK   40  A    between atoms: _108  and  _111
REMARK   41  A    between atoms: _111  and  _112
REMARK   42  A    between atoms: _118  and  _120
REMARK   43  A    between atoms: _131  and  _134
REMARK   44  A    between atoms: _134  and  _135
REMARK   45  A    between atoms: _143  and  _144
REMARK   46  A    between atoms: _152  and  _154
REMARK   47  A    between atoms: _154  and  _155
REMARK   48  A    between atoms: _154  and  _157
REMARK   49  A    between atoms: _157  and  _158
REMARK   50  A    between atoms: _158  and  _159
REMARK   51  A    between atoms: _162  and  _164
REMARK   52  A    between atoms: _164  and  _165
REMARK   53  A    between atoms: _164  and  _167
REMARK   54  A    between atoms: _167  and  _168
REMARK   55  A    between atoms: _173  and  _175
REMARK   56  A    between atoms: _175  and  _176
REMARK   57  A    between atoms: _175  and  _178
REMARK   58  A    between atoms: _178  and  _179
REMARK   59  A    between atoms: _179  and  _180
REMARK   60  A    between atoms: _183  and  _185
REMARK   61  A    between atoms: _185  and  _186
REMARK   62  A    between atoms: _185  and  _188
REMARK   63  A    between atoms: _188  and  _189
REMARK   64  A    between atoms: _192  and  _194
REMARK   65  A    between atoms: _194  and  _195
REMARK   66  A    between atoms: _194  and  _197
REMARK   67  A    between atoms: _197  and  _198
REMARK   68  A    between atoms: _199  and  ZN_409
REMARK   69  A    between atoms: _203  and  _205
REMARK   70  A    between atoms: _205  and  _206
REMARK   71  A    between atoms: _205  and  _208
REMARK   72  A    between atoms: _208  and  _209
REMARK   73  A    between atoms: _212  and  _214
REMARK   74  A    between atoms: _214  and  _215
REMARK   75  A    between atoms: _214  and  _217
REMARK   76  A    between atoms: _220  and  _222
REMARK   77  A    between atoms: _222  and  _223
REMARK   78  A    between atoms: _222  and  _225
REMARK   79  A    between atoms: _225  and  _226
REMARK   80  A    between atoms: _231  and  _233
REMARK   81  A    between atoms: _233  and  _234
REMARK   82  A    between atoms: _233  and  _236
REMARK   83  A    between atoms: _236  and  _237
REMARK   84  A    between atoms: _243  and  _245
REMARK   85  A    between atoms: _245  and  _246
REMARK   86  A    between atoms: _245  and  _248
REMARK   87  A    between atoms: _251  and  _253
REMARK   88  A    between atoms: _253  and  _254
REMARK   89  A    between atoms: _253  and  _256
REMARK   90  A    between atoms: _256  and  _257
REMARK   91  A    between atoms: _260  and  _262
REMARK   92  A    between atoms: _262  and  _263
REMARK   93  A    between atoms: _266  and  _268
REMARK   94  A    between atoms: _268  and  _269
REMARK   95  A    between atoms: _268  and  _271
REMARK   96  A    between atoms: _274  and  _276
REMARK   97  A    between atoms: _276  and  _277
REMARK   98  A    between atoms: _276  and  _279
REMARK   99  A    between atoms: _279  and  _280
REMARK  100  A    between atoms: _283  and  _285
REMARK  101  A    between atoms: _285  and  _286
REMARK  102  A    between atoms: _285  and  _288
REMARK  103  A    between atoms: _288  and  _289
REMARK  104  A    between atoms: _291  and  _293
REMARK  105  A    between atoms: _293  and  _294
REMARK  106  A    between atoms: _293  and  _296
REMARK  107  A    between atoms: _296  and  _297
REMARK  108  A    between atoms: _300  and  _302
REMARK  109  A    between atoms: _302  and  _303
REMARK  110  A    between atoms: _302  and  _305
REMARK  111  A    between atoms: _305  and  _306
REMARK  112  A    between atoms: _309  and  _311
REMARK  113  A    between atoms: _311  and  _312
REMARK  114  A    between atoms: _311  and  _314
REMARK  115  A    between atoms: _314  and  _315
REMARK  116  A    between atoms: _319  and  _320
REMARK  117  A    between atoms: _326  and  _327
REMARK  118  A    between atoms: _332  and  _334
REMARK  119  A    between atoms: _334  and  _335
REMARK  120  A    between atoms: _334  and  _337
REMARK  121  A    between atoms: _337  and  _338
REMARK  122  A    between atoms: _341  and  _343
REMARK  123  A    between atoms: _343  and  _344
REMARK  124  A    between atoms: _343  and  _346
REMARK  125  A    between atoms: _346  and  _347
REMARK  126  A    between atoms: _350  and  _352
REMARK  127  A    between atoms: _352  and  _353
REMARK  128  A    between atoms: _352  and  _355
REMARK  129  A    between atoms: _357  and  _359
REMARK  130  A    between atoms: _359  and  _360
REMARK  131  A    between atoms: _359  and  _362
REMARK  132  A    between atoms: _365  and  _367
REMARK  133  A    between atoms: _367  and  _368
REMARK  134  A    between atoms: _367  and  _370
REMARK  135  A    between atoms: _370  and  _371
REMARK  136  A    between atoms: _381  and  _383
REMARK  137  A    between atoms: _383  and  _384
REMARK  138  A    between atoms: _383  and  _386
REMARK  139  A    between atoms: _386  and  _387
REMARK  140  A    between atoms: _392  and  _394
REMARK  141  A    between atoms: _394  and  _395
REMARK  142  A    between atoms: _394  and  _397
REMARK  143  A    between atoms: _397  and  _398
REMARK  144  A    between atoms: _398  and  _399
REMARK  145  A    between atoms: _399  and  _400
REMARK                            x       y       z     vdW  Elec       q    Type
REMARK                         _______ _______ _______ _____ _____    ______ ____
ROOT
ATOM      1  C   CYS A   1      -5.789   7.482  23.979  0.00  0.00    +0.239 C 
ATOM      2  N   VAL A   2      -5.886   6.186  24.229  0.00  0.00    -0.298 N 
ATOM      3  H   VAL A   2      -5.071   5.668  24.616  0.00  0.00    +0.150 HD
ATOM      4  O   CYS A   1      -6.737   8.163  23.624  0.00  0.00    -0.274 OA
ENDROOT
BRANCH   1   5
ATOM      5  CA  CYS A   1      -4.431   8.129  24.155  0.00  0.00    +0.156 C 
BRANCH   5   6
ATOM      6  N   CYS A   1      -3.345   7.158  24.270  0.00  0.00    -0.237 NA
ATOM      7  H   CYS A   1      -3.242   6.435  23.529  0.00  0.00    +0.142 HD
ENDBRANCH   5   6
BRANCH   5   8
ATOM      8  CB  CYS A   1      -4.160   8.976  22.913  0.00  0.00    +0.095 C 
ATOM      9  SG  CYS A   1      -4.062   7.948  21.345  0.00  0.00    -0.080 S 
ENDBRANCH   5   8
ENDBRANCH   1   5
BRANCH   2  10
ATOM     10  CA  VAL A   2      -7.140   5.482  23.961  0.00  0.00    +0.137 C 
BRANCH  10  11
ATOM     11  CB  VAL A   2      -6.881   4.225  23.055  0.00  0.00    +0.026 C 
ATOM     12  CG2 VAL A   2      -8.217   3.537  22.709  0.00  0.00    +0.002 C 
ATOM     13  CG1 VAL A   2      -6.115   4.626  21.775  0.00  0.00    +0.002 C 
ENDBRANCH  10  11
BRANCH  10  14
ATOM     14  C   VAL A   2      -7.951   4.980  25.128  0.00  0.00    +0.227 C 
ATOM     15  O   VAL A   2      -7.419   4.389  26.072  0.00  0.00    -0.286 OA
ENDBRANCH  10  14
ENDBRANCH   2  10
TORSDOF 6
REMARK  Name = ../refined-set-2016/4mo8/4mo8_pocket.pdb
REMARK  145 active torsions:
REMARK  status: ('A' for Active; 'I' for Inactive)
REMARK    1  A    between atoms: _1  and  _3
REMARK    2  A    between atoms: _3  and  _4
REMARK    3  A    between atoms: _3  and  _6
REMARK    4  A    between atoms: _6  and  _7
REMARK    5  A    between atoms: _17  and  _19
REMARK    6  A    between atoms: _19  and  _20
REMARK    7  A    between atoms: _19  and  _22
REMARK    8  A    between atoms: _22  and  _23
REMARK    9  A    between atoms: _28  and  _29
REMARK   10  A    between atoms: _31  and  _33
REMARK   11  A    between atoms: _33  and  _34
REMARK   12  A    between atoms: _33  and  _36
REMARK   13  A    between atoms: _36  and  _37
REMARK   14  A    between atoms: _40  and  _41
REMARK   15  A    between atoms: _46  and  _48
REMARK   16  A    between atoms: _48  and  _49
REMARK   17  A    between atoms: _48  and  _51
REMARK   18  A    between atoms: _51  and  _52
REMARK   19  A    between atoms: _57  and  _59
REMARK   20  A    between atoms: _59  and  _60
REMARK   21  A    between atoms: _59  and  _62
REMARK   22  A    between atoms: _62  and  _63
REMARK   23  A    between atoms: _68  and  _70
REMARK   24  A    between atoms: _70  and  _71
REMARK   25  A    between atoms: _74  and  _76
REMARK   26  A    between atoms: _76  and  _77
REMARK   27  A    between atoms: _76  and  _79
REMARK   28  A    between atoms: _79  and  _80
REMARK   29  A    between atoms: _85  and  _87
REMARK   30  A    between atoms: _87  and  _88
REMARK   31  A    between atoms: _87  and  _90
REMARK   32  A    between atoms: _90  and  _91
REMARK   33  A    between atoms: _94  and  _96
REMARK   34  A    between atoms: _96  and  _97
REMARK   35  A    between atoms: _96  and  _99
REMARK   36  A    between atoms: _99  and  _100
REMARK   37  A    between atoms: _100  and  _101
REMARK   38  A    between atoms: _106  and  _108
REMARK   39  A    between atoms: _108  and  _109
REMARK   40  A    between atoms: _108  and  _111
REMARK   41  A    between atoms: _111  and  _112
REMARK   42  A    between atoms: _118  and  _120
REMARK   43  A    between atoms: _131  and  _134
REMARK   44  A    between atoms: _134  and  _135
REMARK   45  A    between atoms: _143  and  _144
REMARK   46  A    between atoms: _152  and  _154
REMARK   47  A    between atoms: _154  and  _155
REMARK   48  A    between atoms: _154  and  _157
REMARK   49  A    between atoms: _157  and  _158
REMARK   50  A    between atoms: _158  and  _159
REMARK   51  A    between atoms: _162  and  _164
REMARK   52  A    between atoms: _164  and  _165
REMARK   53  A    between atoms: _164  and  _167
REMARK   54  A    between atoms: _167  and  _168
REMARK   55  A    between atoms: _173  and  _175
REMARK   56  A    between atoms: _175  and  _176
REMARK   57  A    between atoms: _175  and  _178
REMARK   58  A    between atoms: _178  and  _179
REMARK   59  A    between atoms: _179  and  _180
REMARK   60  A    between atoms: _183  and  _185
REMARK   61  A    between atoms: _185  and  _186
REMARK   62  A    between atoms: _185  and  _188
REMARK   63  A    between atoms: _188  and  _189
REMARK   64  A    between atoms: _192  and  _194
REMARK   65  A    between atoms: _194  and  _195
REMARK   66  A    between atoms: _194  and  _197
REMARK   67  A    between atoms: _197  and  _198
REMARK   68  A    between atoms: _199  and  ZN_409
REMARK   69  A    between atoms: _203  and  _205
REMARK   70  A    between atoms: _205  and  _206
REMARK   71  A    between atoms: _205  and  _208
REMARK   72  A    between atoms: _208  and  _209
REMARK   73  A    between atoms: _212  and  _214
REMARK   74  A    between atoms: _214  and  _215
REMARK   75  A    between atoms: _214  and  _217
REMARK   76  A    between atoms: _220  and  _222
REMARK   77  A    between atoms: _222  and  _223
REMARK   78  A    between atoms: _222  and  _225
REMARK   79  A    between atoms: _225  and  _226
REMARK   80  A    between atoms: _231  and  _233
REMARK   81  A    between atoms: _233  and  _234
REMARK   82  A    between atoms: _233  and  _236
REMARK   83  A    between atoms: _236  and  _237
REMARK   84  A    between atoms: _243  and  _245
REMARK   85  A    between atoms: _245  and  _246
REMARK   86  A    between atoms: _245  and  _248
REMARK   87  A    between atoms: _251  and  _253
REMARK   88  A    between atoms: _253  and  _254
REMARK   89  A    between atoms: _253  and  _256
REMARK   90  A    between atoms: _256  and  _257
REMARK   91  A    between atoms: _260  and  _262
REMARK   92  A    between atoms: _262  and  _263
REMARK   93  A    between atoms: _266  and  _268
REMARK   94  A    between atoms: _268  and  _269
REMARK   95  A    between atoms: _268  and  _271
REMARK   96  A    between atoms: _274  and  _276
REMARK   97  A    between atoms: _276  and  _277
REMARK   98  A    between atoms: _276  and  _279
REMARK   99  A    between atoms: _279  and  _280
REMARK  100  A    between atoms: _283  and  _285
REMARK  101  A    between atoms: _285  and  _286
REMARK  102  A    between atoms: _285  and  _288
REMARK  103  A    between atoms: _288  and  _289
REMARK  104  A    between atoms: _291  and  _293
REMARK  105  A    between atoms: _293  and  _294
REMARK  106  A    between atoms: _293  and  _296
REMARK  107  A    between atoms: _296  and  _297
REMARK  108  A    between atoms: _300  and  _302
REMARK  109  A    between atoms: _302  and  _303
REMARK  110  A    between atoms: _302  and  _305
REMARK  111  A    between atoms: _305  and  _306
REMARK  112  A    between atoms: _309  and  _311
REMARK  113  A    between atoms: _311  and  _312
REMARK  114  A    between atoms: _311  and  _314
REMARK  115  A    between atoms: _314  and  _315
REMARK  116  A    between atoms: _319  and  _320
REMARK  117  A    between atoms: _326  and  _327
REMARK  118  A    between atoms: _332  and  _334
REMARK  119  A    between atoms: _334  and  _335
REMARK  120  A    between atoms: _334  and  _337
REMARK  121  A    between atoms: _337  and  _338
REMARK  122  A    between atoms: _341  and  _343
REMARK  123  A    between atoms: _343  and  _344
REMARK  124  A    between atoms: _343  and  _346
REMARK  125  A    between atoms: _346  and  _347
REMARK  126  A    between atoms: _350  and  _352
REMARK  127  A    between atoms: _352  and  _353
REMARK  128  A    between atoms: _352  and  _355
REMARK  129  A    between atoms: _357  and  _359
REMARK  130  A    between atoms: _359  and  _360
REMARK  131  A    between atoms: _359  and  _362
REMARK  132  A    between atoms: _365  and  _367
REMARK  133  A    between atoms: _367  and  _368
REMARK  134  A    between atoms: _367  and  _370
REMARK  135  A    between atoms: _370  and  _371
REMARK  136  A    between atoms: _381  and  _383
REMARK  137  A    between atoms: _383  and  _384
REMARK  138  A    between atoms: _383  and  _386
REMARK  139  A    between atoms: _386  and  _387
REMARK  140  A    between atoms: _392  and  _394
REMARK  141  A    between atoms: _394  and  _395
REMARK  142  A    between atoms: _394  and  _397
REMARK  143  A    between atoms: _397  and  _398
REMARK  144  A    between atoms: _398  and  _399
REMARK  145  A    between atoms: _399  and  _400
REMARK                            x       y       z     vdW  Elec       q    Type
REMARK                         _______ _______ _______ _____ _____    ______ ____
ROOT
ATOM      1  CG  TRP A   1      -8.671  -0.013  24.118  0.00  0.00    -0.002 A 
ATOM      2  CD1 TRP A   1      -7.427   0.533  24.330  0.00  0.00    +0.068 A 
ATOM      3  NE1 TRP A   1      -6.699   0.505  23.170  0.00  0.00    -0.352 N 
ATOM      4  HE1 TRP A   1      -5.728   0.860  23.055  0.00  0.00    +0.166 HD
ATOM      5  CE2 TRP A   1      -7.465  -0.071  22.183  0.00  0.00    +0.056 A 
ATOM      6  CZ2 TRP A   1      -7.168  -0.319  20.850  0.00  0.00    +0.017 A 
ATOM      7  CH2 TRP A   1      -8.136  -0.918  20.083  0.00  0.00    +0.001 A 
ATOM      8  CZ3 TRP A   1      -9.385  -1.266  20.614  0.00  0.00    +0.000 A 
ATOM      9  CE3 TRP A   1      -9.686  -1.014  21.945  0.00  0.00    +0.001 A 
ATOM     10  CD2 TRP A   1      -8.710  -0.406  22.751  0.00  0.00    +0.013 A 
ENDROOT
BRANCH   1  11
ATOM     11  CB  TRP A   1      -9.803  -0.120  25.091  0.00  0.00    +0.053 C 
BRANCH  11  12
ATOM     12  CA  TRP A   1     -10.809   1.048  24.956  0.00  0.00    +0.137 C 
BRANCH  12  13
ATOM     13  N   TRP A   1     -10.335   2.221  25.663  0.00  0.00    -0.239 NA
ATOM     14  H   TRP A   1      -9.718   2.115  26.494  0.00  0.00    +0.142 HD
ENDBRANCH  12  13
BRANCH  12  15
ATOM     15  C   TRP A   1     -12.167   0.595  25.457  0.00  0.00    +0.224 C 
ATOM     16  O   TRP A   1     -12.424   0.561  26.663  0.00  0.00    -0.287 OA
ENDBRANCH  12  15
ENDBRANCH  11  12
ENDBRANCH   1  11
TORSDOF 4
REMARK  Name = ../refined-set-2016/4mo8/4mo8_pocket.pdb
REMARK  145 active torsions:
REMARK  status: ('A' for Active; 'I' for Inactive)
REMARK    1  A    between atoms: _1  and  _3
REMARK    2  A    between atoms: _3  and  _4
REMARK    3  A    between atoms: _3  and  _6
REMARK    4  A    between atoms: _6  and  _7
REMARK    5  A    between atoms: _17  and  _19
REMARK    6  A    between atoms: _19  and  _20
REMARK    7  A    between atoms: _19  and  _22
REMARK    8  A    between atoms: _22  and  _23
REMARK    9  A    between atoms: _28  and  _29
REMARK   10  A    between atoms: _31  and  _33
REMARK   11  A    between atoms: _33  and  _34
REMARK   12  A    between atoms: _33  and  _36
REMARK   13  A    between atoms: _36  and  _37
REMARK   14  A    between atoms: _40  and  _41
REMARK   15  A    between atoms: _46  and  _48
REMARK   16  A    between atoms: _48  and  _49
REMARK   17  A    between atoms: _48  and  _51
REMARK   18  A    between atoms: _51  and  _52
REMARK   19  A    between atoms: _57  and  _59
REMARK   20  A    between atoms: _59  and  _60
REMARK   21  A    between atoms: _59  and  _62
REMARK   22  A    between atoms: _62  and  _63
REMARK   23  A    between atoms: _68  and  _70
REMARK   24  A    between atoms: _70  and  _71
REMARK   25  A    between atoms: _74  and  _76
REMARK   26  A    between atoms: _76  and  _77
REMARK   27  A    between atoms: _76  and  _79
REMARK   28  A    between atoms: _79  and  _80
REMARK   29  A    between atoms: _85  and  _87
REMARK   30  A    between atoms: _87  and  _88
REMARK   31  A    between atoms: _87  and  _90
REMARK   32  A    between atoms: _90  and  _91
REMARK   33  A    between atoms: _94  and  _96
REMARK   34  A    between atoms: _96  and  _97
REMARK   35  A    between atoms: _96  and  _99
REMARK   36  A    between atoms: _99  and  _100
REMARK   37  A    between atoms: _100  and  _101
REMARK   38  A    between atoms: _106  and  _108
REMARK   39  A    between atoms: _108  and  _109
REMARK   40  A    between atoms: _108  and  _111
REMARK   41  A    between atoms: _111  and  _112
REMARK   42  A    between atoms: _118  and  _120
REMARK   43  A    between atoms: _131  and  _134
REMARK   44  A    between atoms: _134  and  _135
REMARK   45  A    between atoms: _143  and  _144
REMARK   46  A    between atoms: _152  and  _154
REMARK   47  A    between atoms: _154  and  _155
REMARK   48  A    between atoms: _154  and  _157
REMARK   49  A    between atoms: _157  and  _158
REMARK   50  A    between atoms: _158  and  _159
REMARK   51  A    between atoms: _162  and  _164
REMARK   52  A    between atoms: _164  and  _165
REMARK   53  A    between atoms: _164  and  _167
REMARK   54  A    between atoms: _167  and  _168
REMARK   55  A    between atoms: _173  and  _175
REMARK   56  A    between atoms: _175  and  _176
REMARK   57  A    between atoms: _175  and  _178
REMARK   58  A    between atoms: _178  and  _179
REMARK   59  A    between atoms: _179  and  _180
REMARK   60  A    between atoms: _183  and  _185
REMARK   61  A    between atoms: _185  and  _186
REMARK   62  A    between atoms: _185  and  _188
REMARK   63  A    between atoms: _188  and  _189
REMARK   64  A    between atoms: _192  and  _194
REMARK   65  A    between atoms: _194  and  _195
REMARK   66  A    between atoms: _194  and  _197
REMARK   67  A    between atoms: _197  and  _198
REMARK   68  A    between atoms: _199  and  ZN_409
REMARK   69  A    between atoms: _203  and  _205
REMARK   70  A    between atoms: _205  and  _206
REMARK   71  A    between atoms: _205  and  _208
REMARK   72  A    between atoms: _208  and  _209
REMARK   73  A    between atoms: _212  and  _214
REMARK   74  A    between atoms: _214  and  _215
REMARK   75  A    between atoms: _214  and  _217
REMARK   76  A    between atoms: _220  and  _222
REMARK   77  A    between atoms: _222  and  _223
REMARK   78  A    between atoms: _222  and  _225
REMARK   79  A    between atoms: _225  and  _226
REMARK   80  A    between atoms: _231  and  _233
REMARK   81  A    between atoms: _233  and  _234
REMARK   82  A    between atoms: _233  and  _236
REMARK   83  A    between atoms: _236  and  _237
REMARK   84  A    between atoms: _243  and  _245
REMARK   85  A    between atoms: _245  and  _246
REMARK   86  A    between atoms: _245  and  _248
REMARK   87  A    between atoms: _251  and  _253
REMARK   88  A    between atoms: _253  and  _254
REMARK   89  A    between atoms: _253  and  _256
REMARK   90  A    between atoms: _256  and  _257
REMARK   91  A    between atoms: _260  and  _262
REMARK   92  A    between atoms: _262  and  _263
REMARK   93  A    between atoms: _266  and  _268
REMARK   94  A    between atoms: _268  and  _269
REMARK   95  A    between atoms: _268  and  _271
REMARK   96  A    between atoms: _274  and  _276
REMARK   97  A    between atoms: _276  and  _277
REMARK   98  A    between atoms: _276  and  _279
REMARK   99  A    between atoms: _279  and  _280
REMARK  100  A    between atoms: _283  and  _285
REMARK  101  A    between atoms: _285  and  _286
REMARK  102  A    between atoms: _285  and  _288
REMARK  103  A    between atoms: _288  and  _289
REMARK  104  A    between atoms: _291  and  _293
REMARK  105  A    between atoms: _293  and  _294
REMARK  106  A    between atoms: _293  and  _296
REMARK  107  A    between atoms: _296  and  _297
REMARK  108  A    between atoms: _300  and  _302
REMARK  109  A    between atoms: _302  and  _303
REMARK  110  A    between atoms: _302  and  _305
REMARK  111  A    between atoms: _305  and  _306
REMARK  112  A    between atoms: _309  and  _311
REMARK  113  A    between atoms: _311  and  _312
REMARK  114  A    between atoms: _311  and  _314
REMARK  115  A    between atoms: _314  and  _315
REMARK  116  A    between atoms: _319  and  _320
REMARK  117  A    between atoms: _326  and  _327
REMARK  118  A    between atoms: _332  and  _334
REMARK  119  A    between atoms: _334  and  _335
REMARK  120  A    between atoms: _334  and  _337
REMARK  121  A    between atoms: _337  and  _338
REMARK  122  A    between atoms: _341  and  _343
REMARK  123  A    between atoms: _343  and  _344
REMARK  124  A    between atoms: _343  and  _346
REMARK  125  A    between atoms: _346  and  _347
REMARK  126  A    between atoms: _350  and  _352
REMARK  127  A    between atoms: _352  and  _353
REMARK  128  A    between atoms: _352  and  _355
REMARK  129  A    between atoms: _357  and  _359
REMARK  130  A    between atoms: _359  and  _360
REMARK  131  A    between atoms: _359  and  _362
REMARK  132  A    between atoms: _365  and  _367
REMARK  133  A    between atoms: _367  and  _368
REMARK  134  A    between atoms: _367  and  _370
REMARK  135  A    between atoms: _370  and  _371
REMARK  136  A    between atoms: _381  and  _383
REMARK  137  A    between atoms: _383  and  _384
REMARK  138  A    between atoms: _383  and  _386
REMARK  139  A    between atoms: _386  and  _387
REMARK  140  A    between atoms: _392  and  _394
REMARK  141  A    between atoms: _394  and  _395
REMARK  142  A    between atoms: _394  and  _397
REMARK  143  A    between atoms: _397  and  _398
REMARK  144  A    between atoms: _398  and  _399
REMARK  145  A    between atoms: _399  and  _400
REMARK                            x       y       z     vdW  Elec       q    Type
REMARK                         _______ _______ _______ _____ _____    ______ ____
ROOT
ATOM      1  CB  ASN A   1      -1.901  -7.277  10.423  0.00  0.00    +0.110 C 
ENDROOT
BRANCH   1   2
ATOM      2  CG  ASN A   1      -3.393  -7.466  10.199  0.00  0.00    +0.221 C 
ATOM      3  OD1 ASN A   1      -4.024  -8.338  10.794  0.00  0.00    -0.275 OA
ATOM      4  ND2 ASN A   1      -3.968  -6.633   9.328  0.00  0.00    -0.329 N 
ATOM      5 HD21 ASN A   1      -4.986  -6.708   9.131  0.00  0.00    +0.145 HD
ATOM      6 HD22 ASN A   1      -3.397  -5.909   8.846  0.00  0.00    +0.145 HD
ENDBRANCH   1   2
BRANCH   1   7
ATOM      7  CA  ASN A   1      -1.347  -8.156  11.547  0.00  0.00    +0.142 C 
BRANCH   7   8
ATOM      8  N   ASN A   1      -1.715  -9.552  11.320  0.00  0.00    -0.239 NA
ATOM      9  H   ASN A   1      -2.652  -9.776  10.928  0.00  0.00    +0.142 HD
ENDBRANCH   7   8
BRANCH   7  10
ATOM     10  C   ASN A   1      -1.919  -7.722  12.898  0.00  0.00    +0.225 C 
ATOM     11  O   ASN A   1      -2.624  -6.718  12.990  0.00  0.00    -0.287 OA
ENDBRANCH   7  10
ENDBRANCH   1   7
TORSDOF 4
REMARK  Name = ../refined-set-2016/4mo8/4mo8_pocket.pdb
REMARK  145 active torsions:
REMARK  status: ('A' for Active; 'I' for Inactive)
REMARK    1  A    between atoms: _1  and  _3
REMARK    2  A    between atoms: _3  and  _4
REMARK    3  A    between atoms: _3  and  _6
REMARK    4  A    between atoms: _6  and  _7
REMARK    5  A    between atoms: _17  and  _19
REMARK    6  A    between atoms: _19  and  _20
REMARK    7  A    between atoms: _19  and  _22
REMARK    8  A    between atoms: _22  and  _23
REMARK    9  A    between atoms: _28  and  _29
REMARK   10  A    between atoms: _31  and  _33
REMARK   11  A    between atoms: _33  and  _34
REMARK   12  A    between atoms: _33  and  _36
REMARK   13  A    between atoms: _36  and  _37
REMARK   14  A    between atoms: _40  and  _41
REMARK   15  A    between atoms: _46  and  _48
REMARK   16  A    between atoms: _48  and  _49
REMARK   17  A    between atoms: _48  and  _51
REMARK   18  A    between atoms: _51  and  _52
REMARK   19  A    between atoms: _57  and  _59
REMARK   20  A    between atoms: _59  and  _60
REMARK   21  A    between atoms: _59  and  _62
REMARK   22  A    between atoms: _62  and  _63
REMARK   23  A    between atoms: _68  and  _70
REMARK   24  A    between atoms: _70  and  _71
REMARK   25  A    between atoms: _74  and  _76
REMARK   26  A    between atoms: _76  and  _77
REMARK   27  A    between atoms: _76  and  _79
REMARK   28  A    between atoms: _79  and  _80
REMARK   29  A    between atoms: _85  and  _87
REMARK   30  A    between atoms: _87  and  _88
REMARK   31  A    between atoms: _87  and  _90
REMARK   32  A    between atoms: _90  and  _91
REMARK   33  A    between atoms: _94  and  _96
REMARK   34  A    between atoms: _96  and  _97
REMARK   35  A    between atoms: _96  and  _99
REMARK   36  A    between atoms: _99  and  _100
REMARK   37  A    between atoms: _100  and  _101
REMARK   38  A    between atoms: _106  and  _108
REMARK   39  A    between atoms: _108  and  _109
REMARK   40  A    between atoms: _108  and  _111
REMARK   41  A    between atoms: _111  and  _112
REMARK   42  A    between atoms: _118  and  _120
REMARK   43  A    between atoms: _131  and  _134
REMARK   44  A    between atoms: _134  and  _135
REMARK   45  A    between atoms: _143  and  _144
REMARK   46  A    between atoms: _152  and  _154
REMARK   47  A    between atoms: _154  and  _155
REMARK   48  A    between atoms: _154  and  _157
REMARK   49  A    between atoms: _157  and  _158
REMARK   50  A    between atoms: _158  and  _159
REMARK   51  A    between atoms: _162  and  _164
REMARK   52  A    between atoms: _164  and  _165
REMARK   53  A    between atoms: _164  and  _167
REMARK   54  A    between atoms: _167  and  _168
REMARK   55  A    between atoms: _173  and  _175
REMARK   56  A    between atoms: _175  and  _176
REMARK   57  A    between atoms: _175  and  _178
REMARK   58  A    between atoms: _178  and  _179
REMARK   59  A    between atoms: _179  and  _180
REMARK   60  A    between atoms: _183  and  _185
REMARK   61  A    between atoms: _185  and  _186
REMARK   62  A    between atoms: _185  and  _188
REMARK   63  A    between atoms: _188  and  _189
REMARK   64  A    between atoms: _192  and  _194
REMARK   65  A    between atoms: _194  and  _195
REMARK   66  A    between atoms: _194  and  _197
REMARK   67  A    between atoms: _197  and  _198
REMARK   68  A    between atoms: _199  and  ZN_409
REMARK   69  A    between atoms: _203  and  _205
REMARK   70  A    between atoms: _205  and  _206
REMARK   71  A    between atoms: _205  and  _208
REMARK   72  A    between atoms: _208  and  _209
REMARK   73  A    between atoms: _212  and  _214
REMARK   74  A    between atoms: _214  and  _215
REMARK   75  A    between atoms: _214  and  _217
REMARK   76  A    between atoms: _220  and  _222
REMARK   77  A    between atoms: _222  and  _223
REMARK   78  A    between atoms: _222  and  _225
REMARK   79  A    between atoms: _225  and  _226
REMARK   80  A    between atoms: _231  and  _233
REMARK   81  A    between atoms: _233  and  _234
REMARK   82  A    between atoms: _233  and  _236
REMARK   83  A    between atoms: _236  and  _237
REMARK   84  A    between atoms: _243  and  _245
REMARK   85  A    between atoms: _245  and  _246
REMARK   86  A    between atoms: _245  and  _248
REMARK   87  A    between atoms: _251  and  _253
REMARK   88  A    between atoms: _253  and  _254
REMARK   89  A    between atoms: _253  and  _256
REMARK   90  A    between atoms: _256  and  _257
REMARK   91  A    between atoms: _260  and  _262
REMARK   92  A    between atoms: _262  and  _263
REMARK   93  A    between atoms: _266  and  _268
REMARK   94  A    between atoms: _268  and  _269
REMARK   95  A    between atoms: _268  and  _271
REMARK   96  A    between atoms: _274  and  _276
REMARK   97  A    between atoms: _276  and  _277
REMARK   98  A    between atoms: _276  and  _279
REMARK   99  A    between atoms: _279  and  _280
REMARK  100  A    between atoms: _283  and  _285
REMARK  101  A    between atoms: _285  and  _286
REMARK  102  A    between atoms: _285  and  _288
REMARK  103  A    between atoms: _288  and  _289
REMARK  104  A    between atoms: _291  and  _293
REMARK  105  A    between atoms: _293  and  _294
REMARK  106  A    between atoms: _293  and  _296
REMARK  107  A    between atoms: _296  and  _297
REMARK  108  A    between atoms: _300  and  _302
REMARK  109  A    between atoms: _302  and  _303
REMARK  110  A    between atoms: _302  and  _305
REMARK  111  A    between atoms: _305  and  _306
REMARK  112  A    between atoms: _309  and  _311
REMARK  113  A    between atoms: _311  and  _312
REMARK  114  A    between atoms: _311  and  _314
REMARK  115  A    between atoms: _314  and  _315
REMARK  116  A    between atoms: _319  and  _320
REMARK  117  A    between atoms: _326  and  _327
REMARK  118  A    between atoms: _332  and  _334
REMARK  119  A    between atoms: _334  and  _335
REMARK  120  A    between atoms: _334  and  _337
REMARK  121  A    between atoms: _337  and  _338
REMARK  122  A    between atoms: _341  and  _343
REMARK  123  A    between atoms: _343  and  _344
REMARK  124  A    between atoms: _343  and  _346
REMARK  125  A    between atoms: _346  and  _347
REMARK  126  A    between atoms: _350  and  _352
REMARK  127  A    between atoms: _352  and  _353
REMARK  128  A    between atoms: _352  and  _355
REMARK  129  A    between atoms: _357  and  _359
REMARK  130  A    between atoms: _359  and  _360
REMARK  131  A    between atoms: _359  and  _362
REMARK  132  A    between atoms: _365  and  _367
REMARK  133  A    between atoms: _367  and  _368
REMARK  134  A    between atoms: _367  and  _370
REMARK  135  A    between atoms: _370  and  _371
REMARK  136  A    between atoms: _381  and  _383
REMARK  137  A    between atoms: _383  and  _384
REMARK  138  A    between atoms: _383  and  _386
REMARK  139  A    between atoms: _386  and  _387
REMARK  140  A    between atoms: _392  and  _394
REMARK  141  A    between atoms: _394  and  _395
REMARK  142  A    between atoms: _394  and  _397
REMARK  143  A    between atoms: _397  and  _398
REMARK  144  A    between atoms: _398  and  _399
REMARK  145  A    between atoms: _399  and  _400
REMARK                            x       y       z     vdW  Elec       q    Type
REMARK                         _______ _______ _______ _____ _____    ______ ____
ROOT
ATOM      1  NE  ARG A   1       2.296  -3.834  21.236  0.00  0.00    -0.265 N 
ATOM      2  CZ  ARG A   1       2.453  -2.828  22.098  0.00  0.00    +0.342 C 
ATOM      3  NH2 ARG A   1       3.659  -2.602  22.619  0.00  0.00    -0.292 N 
ATOM      4 HH21 ARG A   1       3.797  -1.821  23.292  0.00  0.00    +0.255 HD
ATOM      5 HH22 ARG A   1       4.462  -3.206  22.352  0.00  0.00    +0.255 HD
ATOM      6  NH1 ARG A   1       1.434  -2.015  22.406  0.00  0.00    -0.292 N 
ATOM      7 HH11 ARG A   1       1.576  -1.236  23.080  0.00  0.00    +0.255 HD
ATOM      8 HH12 ARG A   1       0.501  -2.163  21.971  0.00  0.00    +0.255 HD
ATOM      9  HE  ARG A   1       3.122  -4.439  21.052  0.00  0.00    +0.259 HD
ENDROOT
BRANCH   1  10
ATOM     10  CD  ARG A   1       1.043  -4.159  20.521  0.00  0.00    +0.174 C 
BRANCH  10  11
ATOM     11  CG  ARG A   1       1.161  -5.524  19.823  0.00  0.00    +0.045 C 
BRANCH  11  12
ATOM     12  CB  ARG A   1       0.071  -5.740  18.757  0.00  0.00    +0.029 C 
BRANCH  12  13
ATOM     13  CA  ARG A   1      -0.028  -7.192  18.275  0.00  0.00    +0.133 C 
BRANCH  13  14
ATOM     14  N   ARG A   1      -1.035  -7.321  17.234  0.00  0.00    -0.239 NA
ATOM     15  H   ARG A   1      -1.871  -6.704  17.261  0.00  0.00    +0.142 HD
ENDBRANCH  13  14
BRANCH  13  16
ATOM     16  C   ARG A   1      -0.538  -8.064  19.407  0.00  0.00    +0.224 C 
ATOM     17  O   ARG A   1      -1.742  -8.080  19.688  0.00  0.00    -0.287 OA
ENDBRANCH  13  16
ENDBRANCH  12  13
ENDBRANCH  11  12
ENDBRANCH  10  11
ENDBRANCH   1  10
TORSDOF 6
REMARK  Name = ../refined-set-2016/4mo8/4mo8_pocket.pdb
REMARK  145 active torsions:
REMARK  status: ('A' for Active; 'I' for Inactive)
REMARK    1  A    between atoms: _1  and  _3
REMARK    2  A    between atoms: _3  and  _4
REMARK    3  A    between atoms: _3  and  _6
REMARK    4  A    between atoms: _6  and  _7
REMARK    5  A    between atoms: _17  and  _19
REMARK    6  A    between atoms: _19  and  _20
REMARK    7  A    between atoms: _19  and  _22
REMARK    8  A    between atoms: _22  and  _23
REMARK    9  A    between atoms: _28  and  _29
REMARK   10  A    between atoms: _31  and  _33
REMARK   11  A    between atoms: _33  and  _34
REMARK   12  A    between atoms: _33  and  _36
REMARK   13  A    between atoms: _36  and  _37
REMARK   14  A    between atoms: _40  and  _41
REMARK   15  A    between atoms: _46  and  _48
REMARK   16  A    between atoms: _48  and  _49
REMARK   17  A    between atoms: _48  and  _51
REMARK   18  A    between atoms: _51  and  _52
REMARK   19  A    between atoms: _57  and  _59
REMARK   20  A    between atoms: _59  and  _60
REMARK   21  A    between atoms: _59  and  _62
REMARK   22  A    between atoms: _62  and  _63
REMARK   23  A    between atoms: _68  and  _70
REMARK   24  A    between atoms: _70  and  _71
REMARK   25  A    between atoms: _74  and  _76
REMARK   26  A    between atoms: _76  and  _77
REMARK   27  A    between atoms: _76  and  _79
REMARK   28  A    between atoms: _79  and  _80
REMARK   29  A    between atoms: _85  and  _87
REMARK   30  A    between atoms: _87  and  _88
REMARK   31  A    between atoms: _87  and  _90
REMARK   32  A    between atoms: _90  and  _91
REMARK   33  A    between atoms: _94  and  _96
REMARK   34  A    between atoms: _96  and  _97
REMARK   35  A    between atoms: _96  and  _99
REMARK   36  A    between atoms: _99  and  _100
REMARK   37  A    between atoms: _100  and  _101
REMARK   38  A    between atoms: _106  and  _108
REMARK   39  A    between atoms: _108  and  _109
REMARK   40  A    between atoms: _108  and  _111
REMARK   41  A    between atoms: _111  and  _112
REMARK   42  A    between atoms: _118  and  _120
REMARK   43  A    between atoms: _131  and  _134
REMARK   44  A    between atoms: _134  and  _135
REMARK   45  A    between atoms: _143  and  _144
REMARK   46  A    between atoms: _152  and  _154
REMARK   47  A    between atoms: _154  and  _155
REMARK   48  A    between atoms: _154  and  _157
REMARK   49  A    between atoms: _157  and  _158
REMARK   50  A    between atoms: _158  and  _159
REMARK   51  A    between atoms: _162  and  _164
REMARK   52  A    between atoms: _164  and  _165
REMARK   53  A    between atoms: _164  and  _167
REMARK   54  A    between atoms: _167  and  _168
REMARK   55  A    between atoms: _173  and  _175
REMARK   56  A    between atoms: _175  and  _176
REMARK   57  A    between atoms: _175  and  _178
REMARK   58  A    between atoms: _178  and  _179
REMARK   59  A    between atoms: _179  and  _180
REMARK   60  A    between atoms: _183  and  _185
REMARK   61  A    between atoms: _185  and  _186
REMARK   62  A    between atoms: _185  and  _188
REMARK   63  A    between atoms: _188  and  _189
REMARK   64  A    between atoms: _192  and  _194
REMARK   65  A    between atoms: _194  and  _195
REMARK   66  A    between atoms: _194  and  _197
REMARK   67  A    between atoms: _197  and  _198
REMARK   68  A    between atoms: _199  and  ZN_409
REMARK   69  A    between atoms: _203  and  _205
REMARK   70  A    between atoms: _205  and  _206
REMARK   71  A    between atoms: _205  and  _208
REMARK   72  A    between atoms: _208  and  _209
REMARK   73  A    between atoms: _212  and  _214
REMARK   74  A    between atoms: _214  and  _215
REMARK   75  A    between atoms: _214  and  _217
REMARK   76  A    between atoms: _220  and  _222
REMARK   77  A    between atoms: _222  and  _223
REMARK   78  A    between atoms: _222  and  _225
REMARK   79  A    between atoms: _225  and  _226
REMARK   80  A    between atoms: _231  and  _233
REMARK   81  A    between atoms: _233  and  _234
REMARK   82  A    between atoms: _233  and  _236
REMARK   83  A    between atoms: _236  and  _237
REMARK   84  A    between atoms: _243  and  _245
REMARK   85  A    between atoms: _245  and  _246
REMARK   86  A    between atoms: _245  and  _248
REMARK   87  A    between atoms: _251  and  _253
REMARK   88  A    between atoms: _253  and  _254
REMARK   89  A    between atoms: _253  and  _256
REMARK   90  A    between atoms: _256  and  _257
REMARK   91  A    between atoms: _260  and  _262
REMARK   92  A    between atoms: _262  and  _263
REMARK   93  A    between atoms: _266  and  _268
REMARK   94  A    between atoms: _268  and  _269
REMARK   95  A    between atoms: _268  and  _271
REMARK   96  A    between atoms: _274  and  _276
REMARK   97  A    between atoms: _276  and  _277
REMARK   98  A    between atoms: _276  and  _279
REMARK   99  A    between atoms: _279  and  _280
REMARK  100  A    between atoms: _283  and  _285
REMARK  101  A    between atoms: _285  and  _286
REMARK  102  A    between atoms: _285  and  _288
REMARK  103  A    between atoms: _288  and  _289
REMARK  104  A    between atoms: _291  and  _293
REMARK  105  A    between atoms: _293  and  _294
REMARK  106  A    between atoms: _293  and  _296
REMARK  107  A    between atoms: _296  and  _297
REMARK  108  A    between atoms: _300  and  _302
REMARK  109  A    between atoms: _302  and  _303
REMARK  110  A    between atoms: _302  and  _305
REMARK  111  A    between atoms: _305  and  _306
REMARK  112  A    between atoms: _309  and  _311
REMARK  113  A    between atoms: _311  and  _312
REMARK  114  A    between atoms: _311  and  _314
REMARK  115  A    between atoms: _314  and  _315
REMARK  116  A    between atoms: _319  and  _320
REMARK  117  A    between atoms: _326  and  _327
REMARK  118  A    between atoms: _332  and  _334
REMARK  119  A    between atoms: _334  and  _335
REMARK  120  A    between atoms: _334  and  _337
REMARK  121  A    between atoms: _337  and  _338
REMARK  122  A    between atoms: _341  and  _343
REMARK  123  A    between atoms: _343  and  _344
REMARK  124  A    between atoms: _343  and  _346
REMARK  125  A    between atoms: _346  and  _347
REMARK  126  A    between atoms: _350  and  _352
REMARK  127  A    between atoms: _352  and  _353
REMARK  128  A    between atoms: _352  and  _355
REMARK  129  A    between atoms: _357  and  _359
REMARK  130  A    between atoms: _359  and  _360
REMARK  131  A    between atoms: _359  and  _362
REMARK  132  A    between atoms: _365  and  _367
REMARK  133  A    between atoms: _367  and  _368
REMARK  134  A    between atoms: _367  and  _370
REMARK  135  A    between atoms: _370  and  _371
REMARK  136  A    between atoms: _381  and  _383
REMARK  137  A    between atoms: _383  and  _384
REMARK  138  A    between atoms: _383  and  _386
REMARK  139  A    between atoms: _386  and  _387
REMARK  140  A    between atoms: _392  and  _394
REMARK  141  A    between atoms: _394  and  _395
REMARK  142  A    between atoms: _394  and  _397
REMARK  143  A    between atoms: _397  and  _398
REMARK  144  A    between atoms: _398  and  _399
REMARK  145  A    between atoms: _399  and  _400
REMARK                            x       y       z     vdW  Elec       q    Type
REMARK                         _______ _______ _______ _____ _____    ______ ____
ROOT
ATOM      1  O   HOH     1      -1.194  -4.023  15.757  0.00  0.00    +0.000 OA
ENDROOT
TORSDOF 0
REMARK  Name = ../refined-set-2016/4mo8/4mo8_pocket.pdb
REMARK  145 active torsions:
REMARK  status: ('A' for Active; 'I' for Inactive)
REMARK    1  A    between atoms: _1  and  _3
REMARK    2  A    between atoms: _3  and  _4
REMARK    3  A    between atoms: _3  and  _6
REMARK    4  A    between atoms: _6  and  _7
REMARK    5  A    between atoms: _17  and  _19
REMARK    6  A    between atoms: _19  and  _20
REMARK    7  A    between atoms: _19  and  _22
REMARK    8  A    between atoms: _22  and  _23
REMARK    9  A    between atoms: _28  and  _29
REMARK   10  A    between atoms: _31  and  _33
REMARK   11  A    between atoms: _33  and  _34
REMARK   12  A    between atoms: _33  and  _36
REMARK   13  A    between atoms: _36  and  _37
REMARK   14  A    between atoms: _40  and  _41
REMARK   15  A    between atoms: _46  and  _48
REMARK   16  A    between atoms: _48  and  _49
REMARK   17  A    between atoms: _48  and  _51
REMARK   18  A    between atoms: _51  and  _52
REMARK   19  A    between atoms: _57  and  _59
REMARK   20  A    between atoms: _59  and  _60
REMARK   21  A    between atoms: _59  and  _62
REMARK   22  A    between atoms: _62  and  _63
REMARK   23  A    between atoms: _68  and  _70
REMARK   24  A    between atoms: _70  and  _71
REMARK   25  A    between atoms: _74  and  _76
REMARK   26  A    between atoms: _76  and  _77
REMARK   27  A    between atoms: _76  and  _79
REMARK   28  A    between atoms: _79  and  _80
REMARK   29  A    between atoms: _85  and  _87
REMARK   30  A    between atoms: _87  and  _88
REMARK   31  A    between atoms: _87  and  _90
REMARK   32  A    between atoms: _90  and  _91
REMARK   33  A    between atoms: _94  and  _96
REMARK   34  A    between atoms: _96  and  _97
REMARK   35  A    between atoms: _96  and  _99
REMARK   36  A    between atoms: _99  and  _100
REMARK   37  A    between atoms: _100  and  _101
REMARK   38  A    between atoms: _106  and  _108
REMARK   39  A    between atoms: _108  and  _109
REMARK   40  A    between atoms: _108  and  _111
REMARK   41  A    between atoms: _111  and  _112
REMARK   42  A    between atoms: _118  and  _120
REMARK   43  A    between atoms: _131  and  _134
REMARK   44  A    between atoms: _134  and  _135
REMARK   45  A    between atoms: _143  and  _144
REMARK   46  A    between atoms: _152  and  _154
REMARK   47  A    between atoms: _154  and  _155
REMARK   48  A    between atoms: _154  and  _157
REMARK   49  A    between atoms: _157  and  _158
REMARK   50  A    between atoms: _158  and  _159
REMARK   51  A    between atoms: _162  and  _164
REMARK   52  A    between atoms: _164  and  _165
REMARK   53  A    between atoms: _164  and  _167
REMARK   54  A    between atoms: _167  and  _168
REMARK   55  A    between atoms: _173  and  _175
REMARK   56  A    between atoms: _175  and  _176
REMARK   57  A    between atoms: _175  and  _178
REMARK   58  A    between atoms: _178  and  _179
REMARK   59  A    between atoms: _179  and  _180
REMARK   60  A    between atoms: _183  and  _185
REMARK   61  A    between atoms: _185  and  _186
REMARK   62  A    between atoms: _185  and  _188
REMARK   63  A    between atoms: _188  and  _189
REMARK   64  A    between atoms: _192  and  _194
REMARK   65  A    between atoms: _194  and  _195
REMARK   66  A    between atoms: _194  and  _197
REMARK   67  A    between atoms: _197  and  _198
REMARK   68  A    between atoms: _199  and  ZN_409
REMARK   69  A    between atoms: _203  and  _205
REMARK   70  A    between atoms: _205  and  _206
REMARK   71  A    between atoms: _205  and  _208
REMARK   72  A    between atoms: _208  and  _209
REMARK   73  A    between atoms: _212  and  _214
REMARK   74  A    between atoms: _214  and  _215
REMARK   75  A    between atoms: _214  and  _217
REMARK   76  A    between atoms: _220  and  _222
REMARK   77  A    between atoms: _222  and  _223
REMARK   78  A    between atoms: _222  and  _225
REMARK   79  A    between atoms: _225  and  _226
REMARK   80  A    between atoms: _231  and  _233
REMARK   81  A    between atoms: _233  and  _234
REMARK   82  A    between atoms: _233  and  _236
REMARK   83  A    between atoms: _236  and  _237
REMARK   84  A    between atoms: _243  and  _245
REMARK   85  A    between atoms: _245  and  _246
REMARK   86  A    between atoms: _245  and  _248
REMARK   87  A    between atoms: _251  and  _253
REMARK   88  A    between atoms: _253  and  _254
REMARK   89  A    between atoms: _253  and  _256
REMARK   90  A    between atoms: _256  and  _257
REMARK   91  A    between atoms: _260  and  _262
REMARK   92  A    between atoms: _262  and  _263
REMARK   93  A    between atoms: _266  and  _268
REMARK   94  A    between atoms: _268  and  _269
REMARK   95  A    between atoms: _268  and  _271
REMARK   96  A    between atoms: _274  and  _276
REMARK   97  A    between atoms: _276  and  _277
REMARK   98  A    between atoms: _276  and  _279
REMARK   99  A    between atoms: _279  and  _280
REMARK  100  A    between atoms: _283  and  _285
REMARK  101  A    between atoms: _285  and  _286
REMARK  102  A    between atoms: _285  and  _288
REMARK  103  A    between atoms: _288  and  _289
REMARK  104  A    between atoms: _291  and  _293
REMARK  105  A    between atoms: _293  and  _294
REMARK  106  A    between atoms: _293  and  _296
REMARK  107  A    between atoms: _296  and  _297
REMARK  108  A    between atoms: _300  and  _302
REMARK  109  A    between atoms: _302  and  _303
REMARK  110  A    between atoms: _302  and  _305
REMARK  111  A    between atoms: _305  and  _306
REMARK  112  A    between atoms: _309  and  _311
REMARK  113  A    between atoms: _311  and  _312
REMARK  114  A    between atoms: _311  and  _314
REMARK  115  A    between atoms: _314  and  _315
REMARK  116  A    between atoms: _319  and  _320
REMARK  117  A    between atoms: _326  and  _327
REMARK  118  A    between atoms: _332  and  _334
REMARK  119  A    between atoms: _334  and  _335
REMARK  120  A    between atoms: _334  and  _337
REMARK  121  A    between atoms: _337  and  _338
REMARK  122  A    between atoms: _341  and  _343
REMARK  123  A    between atoms: _343  and  _344
REMARK  124  A    between atoms: _343  and  _346
REMARK  125  A    between atoms: _346  and  _347
REMARK  126  A    between atoms: _350  and  _352
REMARK  127  A    between atoms: _352  and  _353
REMARK  128  A    between atoms: _352  and  _355
REMARK  129  A    between atoms: _357  and  _359
REMARK  130  A    between atoms: _359  and  _360
REMARK  131  A    between atoms: _359  and  _362
REMARK  132  A    between atoms: _365  and  _367
REMARK  133  A    between atoms: _367  and  _368
REMARK  134  A    between atoms: _367  and  _370
REMARK  135  A    between atoms: _370  and  _371
REMARK  136  A    between atoms: _381  and  _383
REMARK  137  A    between atoms: _383  and  _384
REMARK  138  A    between atoms: _383  and  _386
REMARK  139  A    between atoms: _386  and  _387
REMARK  140  A    between atoms: _392  and  _394
REMARK  141  A    between atoms: _394  and  _395
REMARK  142  A    between atoms: _394  and  _397
REMARK  143  A    between atoms: _397  and  _398
REMARK  144  A    between atoms: _398  and  _399
REMARK  145  A    between atoms: _399  and  _400
REMARK                            x       y       z     vdW  Elec       q    Type
REMARK                         _______ _______ _______ _____ _____    ______ ____
ROOT
ATOM      1  O   HOH     1      -5.024   1.150  10.198  0.00  0.00    +0.000 OA
ENDROOT
TORSDOF 0
REMARK  Name = ../refined-set-2016/4mo8/4mo8_pocket.pdb
REMARK  145 active torsions:
REMARK  status: ('A' for Active; 'I' for Inactive)
REMARK    1  A    between atoms: _1  and  _3
REMARK    2  A    between atoms: _3  and  _4
REMARK    3  A    between atoms: _3  and  _6
REMARK    4  A    between atoms: _6  and  _7
REMARK    5  A    between atoms: _17  and  _19
REMARK    6  A    between atoms: _19  and  _20
REMARK    7  A    between atoms: _19  and  _22
REMARK    8  A    between atoms: _22  and  _23
REMARK    9  A    between atoms: _28  and  _29
REMARK   10  A    between atoms: _31  and  _33
REMARK   11  A    between atoms: _33  and  _34
REMARK   12  A    between atoms: _33  and  _36
REMARK   13  A    between atoms: _36  and  _37
REMARK   14  A    between atoms: _40  and  _41
REMARK   15  A    between atoms: _46  and  _48
REMARK   16  A    between atoms: _48  and  _49
REMARK   17  A    between atoms: _48  and  _51
REMARK   18  A    between atoms: _51  and  _52
REMARK   19  A    between atoms: _57  and  _59
REMARK   20  A    between atoms: _59  and  _60
REMARK   21  A    between atoms: _59  and  _62
REMARK   22  A    between atoms: _62  and  _63
REMARK   23  A    between atoms: _68  and  _70
REMARK   24  A    between atoms: _70  and  _71
REMARK   25  A    between atoms: _74  and  _76
REMARK   26  A    between atoms: _76  and  _77
REMARK   27  A    between atoms: _76  and  _79
REMARK   28  A    between atoms: _79  and  _80
REMARK   29  A    between atoms: _85  and  _87
REMARK   30  A    between atoms: _87  and  _88
REMARK   31  A    between atoms: _87  and  _90
REMARK   32  A    between atoms: _90  and  _91
REMARK   33  A    between atoms: _94  and  _96
REMARK   34  A    between atoms: _96  and  _97
REMARK   35  A    between atoms: _96  and  _99
REMARK   36  A    between atoms: _99  and  _100
REMARK   37  A    between atoms: _100  and  _101
REMARK   38  A    between atoms: _106  and  _108
REMARK   39  A    between atoms: _108  and  _109
REMARK   40  A    between atoms: _108  and  _111
REMARK   41  A    between atoms: _111  and  _112
REMARK   42  A    between atoms: _118  and  _120
REMARK   43  A    between atoms: _131  and  _134
REMARK   44  A    between atoms: _134  and  _135
REMARK   45  A    between atoms: _143  and  _144
REMARK   46  A    between atoms: _152  and  _154
REMARK   47  A    between atoms: _154  and  _155
REMARK   48  A    between atoms: _154  and  _157
REMARK   49  A    between atoms: _157  and  _158
REMARK   50  A    between atoms: _158  and  _159
REMARK   51  A    between atoms: _162  and  _164
REMARK   52  A    between atoms: _164  and  _165
REMARK   53  A    between atoms: _164  and  _167
REMARK   54  A    between atoms: _167  and  _168
REMARK   55  A    between atoms: _173  and  _175
REMARK   56  A    between atoms: _175  and  _176
REMARK   57  A    between atoms: _175  and  _178
REMARK   58  A    between atoms: _178  and  _179
REMARK   59  A    between atoms: _179  and  _180
REMARK   60  A    between atoms: _183  and  _185
REMARK   61  A    between atoms: _185  and  _186
REMARK   62  A    between atoms: _185  and  _188
REMARK   63  A    between atoms: _188  and  _189
REMARK   64  A    between atoms: _192  and  _194
REMARK   65  A    between atoms: _194  and  _195
REMARK   66  A    between atoms: _194  and  _197
REMARK   67  A    between atoms: _197  and  _198
REMARK   68  A    between atoms: _199  and  ZN_409
REMARK   69  A    between atoms: _203  and  _205
REMARK   70  A    between atoms: _205  and  _206
REMARK   71  A    between atoms: _205  and  _208
REMARK   72  A    between atoms: _208  and  _209
REMARK   73  A    between atoms: _212  and  _214
REMARK   74  A    between atoms: _214  and  _215
REMARK   75  A    between atoms: _214  and  _217
REMARK   76  A    between atoms: _220  and  _222
REMARK   77  A    between atoms: _222  and  _223
REMARK   78  A    between atoms: _222  and  _225
REMARK   79  A    between atoms: _225  and  _226
REMARK   80  A    between atoms: _231  and  _233
REMARK   81  A    between atoms: _233  and  _234
REMARK   82  A    between atoms: _233  and  _236
REMARK   83  A    between atoms: _236  and  _237
REMARK   84  A    between atoms: _243  and  _245
REMARK   85  A    between atoms: _245  and  _246
REMARK   86  A    between atoms: _245  and  _248
REMARK   87  A    between atoms: _251  and  _253
REMARK   88  A    between atoms: _253  and  _254
REMARK   89  A    between atoms: _253  and  _256
REMARK   90  A    between atoms: _256  and  _257
REMARK   91  A    between atoms: _260  and  _262
REMARK   92  A    between atoms: _262  and  _263
REMARK   93  A    between atoms: _266  and  _268
REMARK   94  A    between atoms: _268  and  _269
REMARK   95  A    between atoms: _268  and  _271
REMARK   96  A    between atoms: _274  and  _276
REMARK   97  A    between atoms: _276  and  _277
REMARK   98  A    between atoms: _276  and  _279
REMARK   99  A    between atoms: _279  and  _280
REMARK  100  A    between atoms: _283  and  _285
REMARK  101  A    between atoms: _285  and  _286
REMARK  102  A    between atoms: _285  and  _288
REMARK  103  A    between atoms: _288  and  _289
REMARK  104  A    between atoms: _291  and  _293
REMARK  105  A    between atoms: _293  and  _294
REMARK  106  A    between atoms: _293  and  _296
REMARK  107  A    between atoms: _296  and  _297
REMARK  108  A    between atoms: _300  and  _302
REMARK  109  A    between atoms: _302  and  _303
REMARK  110  A    between atoms: _302  and  _305
REMARK  111  A    between atoms: _305  and  _306
REMARK  112  A    between atoms: _309  and  _311
REMARK  113  A    between atoms: _311  and  _312
REMARK  114  A    between atoms: _311  and  _314
REMARK  115  A    between atoms: _314  and  _315
REMARK  116  A    between atoms: _319  and  _320
REMARK  117  A    between atoms: _326  and  _327
REMARK  118  A    between atoms: _332  and  _334
REMARK  119  A    between atoms: _334  and  _335
REMARK  120  A    between atoms: _334  and  _337
REMARK  121  A    between atoms: _337  and  _338
REMARK  122  A    between atoms: _341  and  _343
REMARK  123  A    between atoms: _343  and  _344
REMARK  124  A    between atoms: _343  and  _346
REMARK  125  A    between atoms: _346  and  _347
REMARK  126  A    between atoms: _350  and  _352
REMARK  127  A    between atoms: _352  and  _353
REMARK  128  A    between atoms: _352  and  _355
REMARK  129  A    between atoms: _357  and  _359
REMARK  130  A    between atoms: _359  and  _360
REMARK  131  A    between atoms: _359  and  _362
REMARK  132  A    between atoms: _365  and  _367
REMARK  133  A    between atoms: _367  and  _368
REMARK  134  A    between atoms: _367  and  _370
REMARK  135  A    between atoms: _370  and  _371
REMARK  136  A    between atoms: _381  and  _383
REMARK  137  A    between atoms: _383  and  _384
REMARK  138  A    between atoms: _383  and  _386
REMARK  139  A    between atoms: _386  and  _387
REMARK  140  A    between atoms: _392  and  _394
REMARK  141  A    between atoms: _394  and  _395
REMARK  142  A    between atoms: _394  and  _397
REMARK  143  A    between atoms: _397  and  _398
REMARK  144  A    between atoms: _398  and  _399
REMARK  145  A    between atoms: _399  and  _400
REMARK                            x       y       z     vdW  Elec       q    Type
REMARK                         _______ _______ _______ _____ _____    ______ ____
ROOT
ATOM      1  O   HOH     1      -2.592  -3.082  11.581  0.00  0.00    +0.000 OA
ENDROOT
TORSDOF 0
REMARK  Name = ../refined-set-2016/4mo8/4mo8_pocket.pdb
REMARK  145 active torsions:
REMARK  status: ('A' for Active; 'I' for Inactive)
REMARK    1  A    between atoms: _1  and  _3
REMARK    2  A    between atoms: _3  and  _4
REMARK    3  A    between atoms: _3  and  _6
REMARK    4  A    between atoms: _6  and  _7
REMARK    5  A    between atoms: _17  and  _19
REMARK    6  A    between atoms: _19  and  _20
REMARK    7  A    between atoms: _19  and  _22
REMARK    8  A    between atoms: _22  and  _23
REMARK    9  A    between atoms: _28  and  _29
REMARK   10  A    between atoms: _31  and  _33
REMARK   11  A    between atoms: _33  and  _34
REMARK   12  A    between atoms: _33  and  _36
REMARK   13  A    between atoms: _36  and  _37
REMARK   14  A    between atoms: _40  and  _41
REMARK   15  A    between atoms: _46  and  _48
REMARK   16  A    between atoms: _48  and  _49
REMARK   17  A    between atoms: _48  and  _51
REMARK   18  A    between atoms: _51  and  _52
REMARK   19  A    between atoms: _57  and  _59
REMARK   20  A    between atoms: _59  and  _60
REMARK   21  A    between atoms: _59  and  _62
REMARK   22  A    between atoms: _62  and  _63
REMARK   23  A    between atoms: _68  and  _70
REMARK   24  A    between atoms: _70  and  _71
REMARK   25  A    between atoms: _74  and  _76
REMARK   26  A    between atoms: _76  and  _77
REMARK   27  A    between atoms: _76  and  _79
REMARK   28  A    between atoms: _79  and  _80
REMARK   29  A    between atoms: _85  and  _87
REMARK   30  A    between atoms: _87  and  _88
REMARK   31  A    between atoms: _87  and  _90
REMARK   32  A    between atoms: _90  and  _91
REMARK   33  A    between atoms: _94  and  _96
REMARK   34  A    between atoms: _96  and  _97
REMARK   35  A    between atoms: _96  and  _99
REMARK   36  A    between atoms: _99  and  _100
REMARK   37  A    between atoms: _100  and  _101
REMARK   38  A    between atoms: _106  and  _108
REMARK   39  A    between atoms: _108  and  _109
REMARK   40  A    between atoms: _108  and  _111
REMARK   41  A    between atoms: _111  and  _112
REMARK   42  A    between atoms: _118  and  _120
REMARK   43  A    between atoms: _131  and  _134
REMARK   44  A    between atoms: _134  and  _135
REMARK   45  A    between atoms: _143  and  _144
REMARK   46  A    between atoms: _152  and  _154
REMARK   47  A    between atoms: _154  and  _155
REMARK   48  A    between atoms: _154  and  _157
REMARK   49  A    between atoms: _157  and  _158
REMARK   50  A    between atoms: _158  and  _159
REMARK   51  A    between atoms: _162  and  _164
REMARK   52  A    between atoms: _164  and  _165
REMARK   53  A    between atoms: _164  and  _167
REMARK   54  A    between atoms: _167  and  _168
REMARK   55  A    between atoms: _173  and  _175
REMARK   56  A    between atoms: _175  and  _176
REMARK   57  A    between atoms: _175  and  _178
REMARK   58  A    between atoms: _178  and  _179
REMARK   59  A    between atoms: _179  and  _180
REMARK   60  A    between atoms: _183  and  _185
REMARK   61  A    between atoms: _185  and  _186
REMARK   62  A    between atoms: _185  and  _188
REMARK   63  A    between atoms: _188  and  _189
REMARK   64  A    between atoms: _192  and  _194
REMARK   65  A    between atoms: _194  and  _195
REMARK   66  A    between atoms: _194  and  _197
REMARK   67  A    between atoms: _197  and  _198
REMARK   68  A    between atoms: _199  and  ZN_409
REMARK   69  A    between atoms: _203  and  _205
REMARK   70  A    between atoms: _205  and  _206
REMARK   71  A    between atoms: _205  and  _208
REMARK   72  A    between atoms: _208  and  _209
REMARK   73  A    between atoms: _212  and  _214
REMARK   74  A    between atoms: _214  and  _215
REMARK   75  A    between atoms: _214  and  _217
REMARK   76  A    between atoms: _220  and  _222
REMARK   77  A    between atoms: _222  and  _223
REMARK   78  A    between atoms: _222  and  _225
REMARK   79  A    between atoms: _225  and  _226
REMARK   80  A    between atoms: _231  and  _233
REMARK   81  A    between atoms: _233  and  _234
REMARK   82  A    between atoms: _233  and  _236
REMARK   83  A    between atoms: _236  and  _237
REMARK   84  A    between atoms: _243  and  _245
REMARK   85  A    between atoms: _245  and  _246
REMARK   86  A    between atoms: _245  and  _248
REMARK   87  A    between atoms: _251  and  _253
REMARK   88  A    between atoms: _253  and  _254
REMARK   89  A    between atoms: _253  and  _256
REMARK   90  A    between atoms: _256  and  _257
REMARK   91  A    between atoms: _260  and  _262
REMARK   92  A    between atoms: _262  and  _263
REMARK   93  A    between atoms: _266  and  _268
REMARK   94  A    between atoms: _268  and  _269
REMARK   95  A    between atoms: _268  and  _271
REMARK   96  A    between atoms: _274  and  _276
REMARK   97  A    between atoms: _276  and  _277
REMARK   98  A    between atoms: _276  and  _279
REMARK   99  A    between atoms: _279  and  _280
REMARK  100  A    between atoms: _283  and  _285
REMARK  101  A    between atoms: _285  and  _286
REMARK  102  A    between atoms: _285  and  _288
REMARK  103  A    between atoms: _288  and  _289
REMARK  104  A    between atoms: _291  and  _293
REMARK  105  A    between atoms: _293  and  _294
REMARK  106  A    between atoms: _293  and  _296
REMARK  107  A    between atoms: _296  and  _297
REMARK  108  A    between atoms: _300  and  _302
REMARK  109  A    between atoms: _302  and  _303
REMARK  110  A    between atoms: _302  and  _305
REMARK  111  A    between atoms: _305  and  _306
REMARK  112  A    between atoms: _309  and  _311
REMARK  113  A    between atoms: _311  and  _312
REMARK  114  A    between atoms: _311  and  _314
REMARK  115  A    between atoms: _314  and  _315
REMARK  116  A    between atoms: _319  and  _320
REMARK  117  A    between atoms: _326  and  _327
REMARK  118  A    between atoms: _332  and  _334
REMARK  119  A    between atoms: _334  and  _335
REMARK  120  A    between atoms: _334  and  _337
REMARK  121  A    between atoms: _337  and  _338
REMARK  122  A    between atoms: _341  and  _343
REMARK  123  A    between atoms: _343  and  _344
REMARK  124  A    between atoms: _343  and  _346
REMARK  125  A    between atoms: _346  and  _347
REMARK  126  A    between atoms: _350  and  _352
REMARK  127  A    between atoms: _352  and  _353
REMARK  128  A    between atoms: _352  and  _355
REMARK  129  A    between atoms: _357  and  _359
REMARK  130  A    between atoms: _359  and  _360
REMARK  131  A    between atoms: _359  and  _362
REMARK  132  A    between atoms: _365  and  _367
REMARK  133  A    between atoms: _367  and  _368
REMARK  134  A    between atoms: _367  and  _370
REMARK  135  A    between atoms: _370  and  _371
REMARK  136  A    between atoms: _381  and  _383
REMARK  137  A    between atoms: _383  and  _384
REMARK  138  A    between atoms: _383  and  _386
REMARK  139  A    between atoms: _386  and  _387
REMARK  140  A    between atoms: _392  and  _394
REMARK  141  A    between atoms: _394  and  _395
REMARK  142  A    between atoms: _394  and  _397
REMARK  143  A    between atoms: _397  and  _398
REMARK  144  A    between atoms: _398  and  _399
REMARK  145  A    between atoms: _399  and  _400
REMARK                            x       y       z     vdW  Elec       q    Type
REMARK                         _______ _______ _______ _____ _____    ______ ____
ROOT
ATOM      1  O   HOH     1      -6.956   5.903   6.423  0.00  0.00    +0.000 OA
ENDROOT
TORSDOF 0
REMARK  Name = ../refined-set-2016/4mo8/4mo8_pocket.pdb
REMARK  145 active torsions:
REMARK  status: ('A' for Active; 'I' for Inactive)
REMARK    1  A    between atoms: _1  and  _3
REMARK    2  A    between atoms: _3  and  _4
REMARK    3  A    between atoms: _3  and  _6
REMARK    4  A    between atoms: _6  and  _7
REMARK    5  A    between atoms: _17  and  _19
REMARK    6  A    between atoms: _19  and  _20
REMARK    7  A    between atoms: _19  and  _22
REMARK    8  A    between atoms: _22  and  _23
REMARK    9  A    between atoms: _28  and  _29
REMARK   10  A    between atoms: _31  and  _33
REMARK   11  A    between atoms: _33  and  _34
REMARK   12  A    between atoms: _33  and  _36
REMARK   13  A    between atoms: _36  and  _37
REMARK   14  A    between atoms: _40  and  _41
REMARK   15  A    between atoms: _46  and  _48
REMARK   16  A    between atoms: _48  and  _49
REMARK   17  A    between atoms: _48  and  _51
REMARK   18  A    between atoms: _51  and  _52
REMARK   19  A    between atoms: _57  and  _59
REMARK   20  A    between atoms: _59  and  _60
REMARK   21  A    between atoms: _59  and  _62
REMARK   22  A    between atoms: _62  and  _63
REMARK   23  A    between atoms: _68  and  _70
REMARK   24  A    between atoms: _70  and  _71
REMARK   25  A    between atoms: _74  and  _76
REMARK   26  A    between atoms: _76  and  _77
REMARK   27  A    between atoms: _76  and  _79
REMARK   28  A    between atoms: _79  and  _80
REMARK   29  A    between atoms: _85  and  _87
REMARK   30  A    between atoms: _87  and  _88
REMARK   31  A    between atoms: _87  and  _90
REMARK   32  A    between atoms: _90  and  _91
REMARK   33  A    between atoms: _94  and  _96
REMARK   34  A    between atoms: _96  and  _97
REMARK   35  A    between atoms: _96  and  _99
REMARK   36  A    between atoms: _99  and  _100
REMARK   37  A    between atoms: _100  and  _101
REMARK   38  A    between atoms: _106  and  _108
REMARK   39  A    between atoms: _108  and  _109
REMARK   40  A    between atoms: _108  and  _111
REMARK   41  A    between atoms: _111  and  _112
REMARK   42  A    between atoms: _118  and  _120
REMARK   43  A    between atoms: _131  and  _134
REMARK   44  A    between atoms: _134  and  _135
REMARK   45  A    between atoms: _143  and  _144
REMARK   46  A    between atoms: _152  and  _154
REMARK   47  A    between atoms: _154  and  _155
REMARK   48  A    between atoms: _154  and  _157
REMARK   49  A    between atoms: _157  and  _158
REMARK   50  A    between atoms: _158  and  _159
REMARK   51  A    between atoms: _162  and  _164
REMARK   52  A    between atoms: _164  and  _165
REMARK   53  A    between atoms: _164  and  _167
REMARK   54  A    between atoms: _167  and  _168
REMARK   55  A    between atoms: _173  and  _175
REMARK   56  A    between atoms: _175  and  _176
REMARK   57  A    between atoms: _175  and  _178
REMARK   58  A    between atoms: _178  and  _179
REMARK   59  A    between atoms: _179  and  _180
REMARK   60  A    between atoms: _183  and  _185
REMARK   61  A    between atoms: _185  and  _186
REMARK   62  A    between atoms: _185  and  _188
REMARK   63  A    between atoms: _188  and  _189
REMARK   64  A    between atoms: _192  and  _194
REMARK   65  A    between atoms: _194  and  _195
REMARK   66  A    between atoms: _194  and  _197
REMARK   67  A    between atoms: _197  and  _198
REMARK   68  A    between atoms: _199  and  ZN_409
REMARK   69  A    between atoms: _203  and  _205
REMARK   70  A    between atoms: _205  and  _206
REMARK   71  A    between atoms: _205  and  _208
REMARK   72  A    between atoms: _208  and  _209
REMARK   73  A    between atoms: _212  and  _214
REMARK   74  A    between atoms: _214  and  _215
REMARK   75  A    between atoms: _214  and  _217
REMARK   76  A    between atoms: _220  and  _222
REMARK   77  A    between atoms: _222  and  _223
REMARK   78  A    between atoms: _222  and  _225
REMARK   79  A    between atoms: _225  and  _226
REMARK   80  A    between atoms: _231  and  _233
REMARK   81  A    between atoms: _233  and  _234
REMARK   82  A    between atoms: _233  and  _236
REMARK   83  A    between atoms: _236  and  _237
REMARK   84  A    between atoms: _243  and  _245
REMARK   85  A    between atoms: _245  and  _246
REMARK   86  A    between atoms: _245  and  _248
REMARK   87  A    between atoms: _251  and  _253
REMARK   88  A    between atoms: _253  and  _254
REMARK   89  A    between atoms: _253  and  _256
REMARK   90  A    between atoms: _256  and  _257
REMARK   91  A    between atoms: _260  and  _262
REMARK   92  A    between atoms: _262  and  _263
REMARK   93  A    between atoms: _266  and  _268
REMARK   94  A    between atoms: _268  and  _269
REMARK   95  A    between atoms: _268  and  _271
REMARK   96  A    between atoms: _274  and  _276
REMARK   97  A    between atoms: _276  and  _277
REMARK   98  A    between atoms: _276  and  _279
REMARK   99  A    between atoms: _279  and  _280
REMARK  100  A    between atoms: _283  and  _285
REMARK  101  A    between atoms: _285  and  _286
REMARK  102  A    between atoms: _285  and  _288
REMARK  103  A    between atoms: _288  and  _289
REMARK  104  A    between atoms: _291  and  _293
REMARK  105  A    between atoms: _293  and  _294
REMARK  106  A    between atoms: _293  and  _296
REMARK  107  A    between atoms: _296  and  _297
REMARK  108  A    between atoms: _300  and  _302
REMARK  109  A    between atoms: _302  and  _303
REMARK  110  A    between atoms: _302  and  _305
REMARK  111  A    between atoms: _305  and  _306
REMARK  112  A    between atoms: _309  and  _311
REMARK  113  A    between atoms: _311  and  _312
REMARK  114  A    between atoms: _311  and  _314
REMARK  115  A    between atoms: _314  and  _315
REMARK  116  A    between atoms: _319  and  _320
REMARK  117  A    between atoms: _326  and  _327
REMARK  118  A    between atoms: _332  and  _334
REMARK  119  A    between atoms: _334  and  _335
REMARK  120  A    between atoms: _334  and  _337
REMARK  121  A    between atoms: _337  and  _338
REMARK  122  A    between atoms: _341  and  _343
REMARK  123  A    between atoms: _343  and  _344
REMARK  124  A    between atoms: _343  and  _346
REMARK  125  A    between atoms: _346  and  _347
REMARK  126  A    between atoms: _350  and  _352
REMARK  127  A    between atoms: _352  and  _353
REMARK  128  A    between atoms: _352  and  _355
REMARK  129  A    between atoms: _357  and  _359
REMARK  130  A    between atoms: _359  and  _360
REMARK  131  A    between atoms: _359  and  _362
REMARK  132  A    between atoms: _365  and  _367
REMARK  133  A    between atoms: _367  and  _368
REMARK  134  A    between atoms: _367  and  _370
REMARK  135  A    between atoms: _370  and  _371
REMARK  136  A    between atoms: _381  and  _383
REMARK  137  A    between atoms: _383  and  _384
REMARK  138  A    between atoms: _383  and  _386
REMARK  139  A    between atoms: _386  and  _387
REMARK  140  A    between atoms: _392  and  _394
REMARK  141  A    between atoms: _394  and  _395
REMARK  142  A    between atoms: _394  and  _397
REMARK  143  A    between atoms: _397  and  _398
REMARK  144  A    between atoms: _398  and  _399
REMARK  145  A    between atoms: _399  and  _400
REMARK                            x       y       z     vdW  Elec       q    Type
REMARK                         _______ _______ _______ _____ _____    ______ ____
ROOT
ATOM      1  O   HOH     1      -4.237   3.926  10.005  0.00  0.00    +0.000 OA
ENDROOT
TORSDOF 0
REMARK  Name = ../refined-set-2016/4mo8/4mo8_pocket.pdb
REMARK  145 active torsions:
REMARK  status: ('A' for Active; 'I' for Inactive)
REMARK    1  A    between atoms: _1  and  _3
REMARK    2  A    between atoms: _3  and  _4
REMARK    3  A    between atoms: _3  and  _6
REMARK    4  A    between atoms: _6  and  _7
REMARK    5  A    between atoms: _17  and  _19
REMARK    6  A    between atoms: _19  and  _20
REMARK    7  A    between atoms: _19  and  _22
REMARK    8  A    between atoms: _22  and  _23
REMARK    9  A    between atoms: _28  and  _29
REMARK   10  A    between atoms: _31  and  _33
REMARK   11  A    between atoms: _33  and  _34
REMARK   12  A    between atoms: _33  and  _36
REMARK   13  A    between atoms: _36  and  _37
REMARK   14  A    between atoms: _40  and  _41
REMARK   15  A    between atoms: _46  and  _48
REMARK   16  A    between atoms: _48  and  _49
REMARK   17  A    between atoms: _48  and  _51
REMARK   18  A    between atoms: _51  and  _52
REMARK   19  A    between atoms: _57  and  _59
REMARK   20  A    between atoms: _59  and  _60
REMARK   21  A    between atoms: _59  and  _62
REMARK   22  A    between atoms: _62  and  _63
REMARK   23  A    between atoms: _68  and  _70
REMARK   24  A    between atoms: _70  and  _71
REMARK   25  A    between atoms: _74  and  _76
REMARK   26  A    between atoms: _76  and  _77
REMARK   27  A    between atoms: _76  and  _79
REMARK   28  A    between atoms: _79  and  _80
REMARK   29  A    between atoms: _85  and  _87
REMARK   30  A    between atoms: _87  and  _88
REMARK   31  A    between atoms: _87  and  _90
REMARK   32  A    between atoms: _90  and  _91
REMARK   33  A    between atoms: _94  and  _96
REMARK   34  A    between atoms: _96  and  _97
REMARK   35  A    between atoms: _96  and  _99
REMARK   36  A    between atoms: _99  and  _100
REMARK   37  A    between atoms: _100  and  _101
REMARK   38  A    between atoms: _106  and  _108
REMARK   39  A    between atoms: _108  and  _109
REMARK   40  A    between atoms: _108  and  _111
REMARK   41  A    between atoms: _111  and  _112
REMARK   42  A    between atoms: _118  and  _120
REMARK   43  A    between atoms: _131  and  _134
REMARK   44  A    between atoms: _134  and  _135
REMARK   45  A    between atoms: _143  and  _144
REMARK   46  A    between atoms: _152  and  _154
REMARK   47  A    between atoms: _154  and  _155
REMARK   48  A    between atoms: _154  and  _157
REMARK   49  A    between atoms: _157  and  _158
REMARK   50  A    between atoms: _158  and  _159
REMARK   51  A    between atoms: _162  and  _164
REMARK   52  A    between atoms: _164  and  _165
REMARK   53  A    between atoms: _164  and  _167
REMARK   54  A    between atoms: _167  and  _168
REMARK   55  A    between atoms: _173  and  _175
REMARK   56  A    between atoms: _175  and  _176
REMARK   57  A    between atoms: _175  and  _178
REMARK   58  A    between atoms: _178  and  _179
REMARK   59  A    between atoms: _179  and  _180
REMARK   60  A    between atoms: _183  and  _185
REMARK   61  A    between atoms: _185  and  _186
REMARK   62  A    between atoms: _185  and  _188
REMARK   63  A    between atoms: _188  and  _189
REMARK   64  A    between atoms: _192  and  _194
REMARK   65  A    between atoms: _194  and  _195
REMARK   66  A    between atoms: _194  and  _197
REMARK   67  A    between atoms: _197  and  _198
REMARK   68  A    between atoms: _199  and  ZN_409
REMARK   69  A    between atoms: _203  and  _205
REMARK   70  A    between atoms: _205  and  _206
REMARK   71  A    between atoms: _205  and  _208
REMARK   72  A    between atoms: _208  and  _209
REMARK   73  A    between atoms: _212  and  _214
REMARK   74  A    between atoms: _214  and  _215
REMARK   75  A    between atoms: _214  and  _217
REMARK   76  A    between atoms: _220  and  _222
REMARK   77  A    between atoms: _222  and  _223
REMARK   78  A    between atoms: _222  and  _225
REMARK   79  A    between atoms: _225  and  _226
REMARK   80  A    between atoms: _231  and  _233
REMARK   81  A    between atoms: _233  and  _234
REMARK   82  A    between atoms: _233  and  _236
REMARK   83  A    between atoms: _236  and  _237
REMARK   84  A    between atoms: _243  and  _245
REMARK   85  A    between atoms: _245  and  _246
REMARK   86  A    between atoms: _245  and  _248
REMARK   87  A    between atoms: _251  and  _253
REMARK   88  A    between atoms: _253  and  _254
REMARK   89  A    between atoms: _253  and  _256
REMARK   90  A    between atoms: _256  and  _257
REMARK   91  A    between atoms: _260  and  _262
REMARK   92  A    between atoms: _262  and  _263
REMARK   93  A    between atoms: _266  and  _268
REMARK   94  A    between atoms: _268  and  _269
REMARK   95  A    between atoms: _268  and  _271
REMARK   96  A    between atoms: _274  and  _276
REMARK   97  A    between atoms: _276  and  _277
REMARK   98  A    between atoms: _276  and  _279
REMARK   99  A    between atoms: _279  and  _280
REMARK  100  A    between atoms: _283  and  _285
REMARK  101  A    between atoms: _285  and  _286
REMARK  102  A    between atoms: _285  and  _288
REMARK  103  A    between atoms: _288  and  _289
REMARK  104  A    between atoms: _291  and  _293
REMARK  105  A    between atoms: _293  and  _294
REMARK  106  A    between atoms: _293  and  _296
REMARK  107  A    between atoms: _296  and  _297
REMARK  108  A    between atoms: _300  and  _302
REMARK  109  A    between atoms: _302  and  _303
REMARK  110  A    between atoms: _302  and  _305
REMARK  111  A    between atoms: _305  and  _306
REMARK  112  A    between atoms: _309  and  _311
REMARK  113  A    between atoms: _311  and  _312
REMARK  114  A    between atoms: _311  and  _314
REMARK  115  A    between atoms: _314  and  _315
REMARK  116  A    between atoms: _319  and  _320
REMARK  117  A    between atoms: _326  and  _327
REMARK  118  A    between atoms: _332  and  _334
REMARK  119  A    between atoms: _334  and  _335
REMARK  120  A    between atoms: _334  and  _337
REMARK  121  A    between atoms: _337  and  _338
REMARK  122  A    between atoms: _341  and  _343
REMARK  123  A    between atoms: _343  and  _344
REMARK  124  A    between atoms: _343  and  _346
REMARK  125  A    between atoms: _346  and  _347
REMARK  126  A    between atoms: _350  and  _352
REMARK  127  A    between atoms: _352  and  _353
REMARK  128  A    between atoms: _352  and  _355
REMARK  129  A    between atoms: _357  and  _359
REMARK  130  A    between atoms: _359  and  _360
REMARK  131  A    between atoms: _359  and  _362
REMARK  132  A    between atoms: _365  and  _367
REMARK  133  A    between atoms: _367  and  _368
REMARK  134  A    between atoms: _367  and  _370
REMARK  135  A    between atoms: _370  and  _371
REMARK  136  A    between atoms: _381  and  _383
REMARK  137  A    between atoms: _383  and  _384
REMARK  138  A    between atoms: _383  and  _386
REMARK  139  A    between atoms: _386  and  _387
REMARK  140  A    between atoms: _392  and  _394
REMARK  141  A    between atoms: _394  and  _395
REMARK  142  A    between atoms: _394  and  _397
REMARK  143  A    between atoms: _397  and  _398
REMARK  144  A    between atoms: _398  and  _399
REMARK  145  A    between atoms: _399  and  _400
REMARK                            x       y       z     vdW  Elec       q    Type
REMARK                         _______ _______ _______ _____ _____    ______ ____
ROOT
ATOM      1  O   HOH     1      -4.265  -0.823  11.966  0.00  0.00    +0.000 OA
ENDROOT
TORSDOF 0
REMARK  Name = ../refined-set-2016/4mo8/4mo8_pocket.pdb
REMARK  145 active torsions:
REMARK  status: ('A' for Active; 'I' for Inactive)
REMARK    1  A    between atoms: _1  and  _3
REMARK    2  A    between atoms: _3  and  _4
REMARK    3  A    between atoms: _3  and  _6
REMARK    4  A    between atoms: _6  and  _7
REMARK    5  A    between atoms: _17  and  _19
REMARK    6  A    between atoms: _19  and  _20
REMARK    7  A    between atoms: _19  and  _22
REMARK    8  A    between atoms: _22  and  _23
REMARK    9  A    between atoms: _28  and  _29
REMARK   10  A    between atoms: _31  and  _33
REMARK   11  A    between atoms: _33  and  _34
REMARK   12  A    between atoms: _33  and  _36
REMARK   13  A    between atoms: _36  and  _37
REMARK   14  A    between atoms: _40  and  _41
REMARK   15  A    between atoms: _46  and  _48
REMARK   16  A    between atoms: _48  and  _49
REMARK   17  A    between atoms: _48  and  _51
REMARK   18  A    between atoms: _51  and  _52
REMARK   19  A    between atoms: _57  and  _59
REMARK   20  A    between atoms: _59  and  _60
REMARK   21  A    between atoms: _59  and  _62
REMARK   22  A    between atoms: _62  and  _63
REMARK   23  A    between atoms: _68  and  _70
REMARK   24  A    between atoms: _70  and  _71
REMARK   25  A    between atoms: _74  and  _76
REMARK   26  A    between atoms: _76  and  _77
REMARK   27  A    between atoms: _76  and  _79
REMARK   28  A    between atoms: _79  and  _80
REMARK   29  A    between atoms: _85  and  _87
REMARK   30  A    between atoms: _87  and  _88
REMARK   31  A    between atoms: _87  and  _90
REMARK   32  A    between atoms: _90  and  _91
REMARK   33  A    between atoms: _94  and  _96
REMARK   34  A    between atoms: _96  and  _97
REMARK   35  A    between atoms: _96  and  _99
REMARK   36  A    between atoms: _99  and  _100
REMARK   37  A    between atoms: _100  and  _101
REMARK   38  A    between atoms: _106  and  _108
REMARK   39  A    between atoms: _108  and  _109
REMARK   40  A    between atoms: _108  and  _111
REMARK   41  A    between atoms: _111  and  _112
REMARK   42  A    between atoms: _118  and  _120
REMARK   43  A    between atoms: _131  and  _134
REMARK   44  A    between atoms: _134  and  _135
REMARK   45  A    between atoms: _143  and  _144
REMARK   46  A    between atoms: _152  and  _154
REMARK   47  A    between atoms: _154  and  _155
REMARK   48  A    between atoms: _154  and  _157
REMARK   49  A    between atoms: _157  and  _158
REMARK   50  A    between atoms: _158  and  _159
REMARK   51  A    between atoms: _162  and  _164
REMARK   52  A    between atoms: _164  and  _165
REMARK   53  A    between atoms: _164  and  _167
REMARK   54  A    between atoms: _167  and  _168
REMARK   55  A    between atoms: _173  and  _175
REMARK   56  A    between atoms: _175  and  _176
REMARK   57  A    between atoms: _175  and  _178
REMARK   58  A    between atoms: _178  and  _179
REMARK   59  A    between atoms: _179  and  _180
REMARK   60  A    between atoms: _183  and  _185
REMARK   61  A    between atoms: _185  and  _186
REMARK   62  A    between atoms: _185  and  _188
REMARK   63  A    between atoms: _188  and  _189
REMARK   64  A    between atoms: _192  and  _194
REMARK   65  A    between atoms: _194  and  _195
REMARK   66  A    between atoms: _194  and  _197
REMARK   67  A    between atoms: _197  and  _198
REMARK   68  A    between atoms: _199  and  ZN_409
REMARK   69  A    between atoms: _203  and  _205
REMARK   70  A    between atoms: _205  and  _206
REMARK   71  A    between atoms: _205  and  _208
REMARK   72  A    between atoms: _208  and  _209
REMARK   73  A    between atoms: _212  and  _214
REMARK   74  A    between atoms: _214  and  _215
REMARK   75  A    between atoms: _214  and  _217
REMARK   76  A    between atoms: _220  and  _222
REMARK   77  A    between atoms: _222  and  _223
REMARK   78  A    between atoms: _222  and  _225
REMARK   79  A    between atoms: _225  and  _226
REMARK   80  A    between atoms: _231  and  _233
REMARK   81  A    between atoms: _233  and  _234
REMARK   82  A    between atoms: _233  and  _236
REMARK   83  A    between atoms: _236  and  _237
REMARK   84  A    between atoms: _243  and  _245
REMARK   85  A    between atoms: _245  and  _246
REMARK   86  A    between atoms: _245  and  _248
REMARK   87  A    between atoms: _251  and  _253
REMARK   88  A    between atoms: _253  and  _254
REMARK   89  A    between atoms: _253  and  _256
REMARK   90  A    between atoms: _256  and  _257
REMARK   91  A    between atoms: _260  and  _262
REMARK   92  A    between atoms: _262  and  _263
REMARK   93  A    between atoms: _266  and  _268
REMARK   94  A    between atoms: _268  and  _269
REMARK   95  A    between atoms: _268  and  _271
REMARK   96  A    between atoms: _274  and  _276
REMARK   97  A    between atoms: _276  and  _277
REMARK   98  A    between atoms: _276  and  _279
REMARK   99  A    between atoms: _279  and  _280
REMARK  100  A    between atoms: _283  and  _285
REMARK  101  A    between atoms: _285  and  _286
REMARK  102  A    between atoms: _285  and  _288
REMARK  103  A    between atoms: _288  and  _289
REMARK  104  A    between atoms: _291  and  _293
REMARK  105  A    between atoms: _293  and  _294
REMARK  106  A    between atoms: _293  and  _296
REMARK  107  A    between atoms: _296  and  _297
REMARK  108  A    between atoms: _300  and  _302
REMARK  109  A    between atoms: _302  and  _303
REMARK  110  A    between atoms: _302  and  _305
REMARK  111  A    between atoms: _305  and  _306
REMARK  112  A    between atoms: _309  and  _311
REMARK  113  A    between atoms: _311  and  _312
REMARK  114  A    between atoms: _311  and  _314
REMARK  115  A    between atoms: _314  and  _315
REMARK  116  A    between atoms: _319  and  _320
REMARK  117  A    between atoms: _326  and  _327
REMARK  118  A    between atoms: _332  and  _334
REMARK  119  A    between atoms: _334  and  _335
REMARK  120  A    between atoms: _334  and  _337
REMARK  121  A    between atoms: _337  and  _338
REMARK  122  A    between atoms: _341  and  _343
REMARK  123  A    between atoms: _343  and  _344
REMARK  124  A    between atoms: _343  and  _346
REMARK  125  A    between atoms: _346  and  _347
REMARK  126  A    between atoms: _350  and  _352
REMARK  127  A    between atoms: _352  and  _353
REMARK  128  A    between atoms: _352  and  _355
REMARK  129  A    between atoms: _357  and  _359
REMARK  130  A    between atoms: _359  and  _360
REMARK  131  A    between atoms: _359  and  _362
REMARK  132  A    between atoms: _365  and  _367
REMARK  133  A    between atoms: _367  and  _368
REMARK  134  A    between atoms: _367  and  _370
REMARK  135  A    between atoms: _370  and  _371
REMARK  136  A    between atoms: _381  and  _383
REMARK  137  A    between atoms: _383  and  _384
REMARK  138  A    between atoms: _383  and  _386
REMARK  139  A    between atoms: _386  and  _387
REMARK  140  A    between atoms: _392  and  _394
REMARK  141  A    between atoms: _394  and  _395
REMARK  142  A    between atoms: _394  and  _397
REMARK  143  A    between atoms: _397  and  _398
REMARK  144  A    between atoms: _398  and  _399
REMARK  145  A    between atoms: _399  and  _400
REMARK                            x       y       z     vdW  Elec       q    Type
REMARK                         _______ _______ _______ _____ _____    ______ ____
ROOT
ATOM      1  O   HOH     1      -8.315   7.617   8.046  0.00  0.00    +0.000 OA
ENDROOT
TORSDOF 0
REMARK  Name = ../refined-set-2016/4mo8/4mo8_pocket.pdb
REMARK  145 active torsions:
REMARK  status: ('A' for Active; 'I' for Inactive)
REMARK    1  A    between atoms: _1  and  _3
REMARK    2  A    between atoms: _3  and  _4
REMARK    3  A    between atoms: _3  and  _6
REMARK    4  A    between atoms: _6  and  _7
REMARK    5  A    between atoms: _17  and  _19
REMARK    6  A    between atoms: _19  and  _20
REMARK    7  A    between atoms: _19  and  _22
REMARK    8  A    between atoms: _22  and  _23
REMARK    9  A    between atoms: _28  and  _29
REMARK   10  A    between atoms: _31  and  _33
REMARK   11  A    between atoms: _33  and  _34
REMARK   12  A    between atoms: _33  and  _36
REMARK   13  A    between atoms: _36  and  _37
REMARK   14  A    between atoms: _40  and  _41
REMARK   15  A    between atoms: _46  and  _48
REMARK   16  A    between atoms: _48  and  _49
REMARK   17  A    between atoms: _48  and  _51
REMARK   18  A    between atoms: _51  and  _52
REMARK   19  A    between atoms: _57  and  _59
REMARK   20  A    between atoms: _59  and  _60
REMARK   21  A    between atoms: _59  and  _62
REMARK   22  A    between atoms: _62  and  _63
REMARK   23  A    between atoms: _68  and  _70
REMARK   24  A    between atoms: _70  and  _71
REMARK   25  A    between atoms: _74  and  _76
REMARK   26  A    between atoms: _76  and  _77
REMARK   27  A    between atoms: _76  and  _79
REMARK   28  A    between atoms: _79  and  _80
REMARK   29  A    between atoms: _85  and  _87
REMARK   30  A    between atoms: _87  and  _88
REMARK   31  A    between atoms: _87  and  _90
REMARK   32  A    between atoms: _90  and  _91
REMARK   33  A    between atoms: _94  and  _96
REMARK   34  A    between atoms: _96  and  _97
REMARK   35  A    between atoms: _96  and  _99
REMARK   36  A    between atoms: _99  and  _100
REMARK   37  A    between atoms: _100  and  _101
REMARK   38  A    between atoms: _106  and  _108
REMARK   39  A    between atoms: _108  and  _109
REMARK   40  A    between atoms: _108  and  _111
REMARK   41  A    between atoms: _111  and  _112
REMARK   42  A    between atoms: _118  and  _120
REMARK   43  A    between atoms: _131  and  _134
REMARK   44  A    between atoms: _134  and  _135
REMARK   45  A    between atoms: _143  and  _144
REMARK   46  A    between atoms: _152  and  _154
REMARK   47  A    between atoms: _154  and  _155
REMARK   48  A    between atoms: _154  and  _157
REMARK   49  A    between atoms: _157  and  _158
REMARK   50  A    between atoms: _158  and  _159
REMARK   51  A    between atoms: _162  and  _164
REMARK   52  A    between atoms: _164  and  _165
REMARK   53  A    between atoms: _164  and  _167
REMARK   54  A    between atoms: _167  and  _168
REMARK   55  A    between atoms: _173  and  _175
REMARK   56  A    between atoms: _175  and  _176
REMARK   57  A    between atoms: _175  and  _178
REMARK   58  A    between atoms: _178  and  _179
REMARK   59  A    between atoms: _179  and  _180
REMARK   60  A    between atoms: _183  and  _185
REMARK   61  A    between atoms: _185  and  _186
REMARK   62  A    between atoms: _185  and  _188
REMARK   63  A    between atoms: _188  and  _189
REMARK   64  A    between atoms: _192  and  _194
REMARK   65  A    between atoms: _194  and  _195
REMARK   66  A    between atoms: _194  and  _197
REMARK   67  A    between atoms: _197  and  _198
REMARK   68  A    between atoms: _199  and  ZN_409
REMARK   69  A    between atoms: _203  and  _205
REMARK   70  A    between atoms: _205  and  _206
REMARK   71  A    between atoms: _205  and  _208
REMARK   72  A    between atoms: _208  and  _209
REMARK   73  A    between atoms: _212  and  _214
REMARK   74  A    between atoms: _214  and  _215
REMARK   75  A    between atoms: _214  and  _217
REMARK   76  A    between atoms: _220  and  _222
REMARK   77  A    between atoms: _222  and  _223
REMARK   78  A    between atoms: _222  and  _225
REMARK   79  A    between atoms: _225  and  _226
REMARK   80  A    between atoms: _231  and  _233
REMARK   81  A    between atoms: _233  and  _234
REMARK   82  A    between atoms: _233  and  _236
REMARK   83  A    between atoms: _236  and  _237
REMARK   84  A    between atoms: _243  and  _245
REMARK   85  A    between atoms: _245  and  _246
REMARK   86  A    between atoms: _245  and  _248
REMARK   87  A    between atoms: _251  and  _253
REMARK   88  A    between atoms: _253  and  _254
REMARK   89  A    between atoms: _253  and  _256
REMARK   90  A    between atoms: _256  and  _257
REMARK   91  A    between atoms: _260  and  _262
REMARK   92  A    between atoms: _262  and  _263
REMARK   93  A    between atoms: _266  and  _268
REMARK   94  A    between atoms: _268  and  _269
REMARK   95  A    between atoms: _268  and  _271
REMARK   96  A    between atoms: _274  and  _276
REMARK   97  A    between atoms: _276  and  _277
REMARK   98  A    between atoms: _276  and  _279
REMARK   99  A    between atoms: _279  and  _280
REMARK  100  A    between atoms: _283  and  _285
REMARK  101  A    between atoms: _285  and  _286
REMARK  102  A    between atoms: _285  and  _288
REMARK  103  A    between atoms: _288  and  _289
REMARK  104  A    between atoms: _291  and  _293
REMARK  105  A    between atoms: _293  and  _294
REMARK  106  A    between atoms: _293  and  _296
REMARK  107  A    between atoms: _296  and  _297
REMARK  108  A    between atoms: _300  and  _302
REMARK  109  A    between atoms: _302  and  _303
REMARK  110  A    between atoms: _302  and  _305
REMARK  111  A    between atoms: _305  and  _306
REMARK  112  A    between atoms: _309  and  _311
REMARK  113  A    between atoms: _311  and  _312
REMARK  114  A    between atoms: _311  and  _314
REMARK  115  A    between atoms: _314  and  _315
REMARK  116  A    between atoms: _319  and  _320
REMARK  117  A    between atoms: _326  and  _327
REMARK  118  A    between atoms: _332  and  _334
REMARK  119  A    between atoms: _334  and  _335
REMARK  120  A    between atoms: _334  and  _337
REMARK  121  A    between atoms: _337  and  _338
REMARK  122  A    between atoms: _341  and  _343
REMARK  123  A    between atoms: _343  and  _344
REMARK  124  A    between atoms: _343  and  _346
REMARK  125  A    between atoms: _346  and  _347
REMARK  126  A    between atoms: _350  and  _352
REMARK  127  A    between atoms: _352  and  _353
REMARK  128  A    between atoms: _352  and  _355
REMARK  129  A    between atoms: _357  and  _359
REMARK  130  A    between atoms: _359  and  _360
REMARK  131  A    between atoms: _359  and  _362
REMARK  132  A    between atoms: _365  and  _367
REMARK  133  A    between atoms: _367  and  _368
REMARK  134  A    between atoms: _367  and  _370
REMARK  135  A    between atoms: _370  and  _371
REMARK  136  A    between atoms: _381  and  _383
REMARK  137  A    between atoms: _383  and  _384
REMARK  138  A    between atoms: _383  and  _386
REMARK  139  A    between atoms: _386  and  _387
REMARK  140  A    between atoms: _392  and  _394
REMARK  141  A    between atoms: _394  and  _395
REMARK  142  A    between atoms: _394  and  _397
REMARK  143  A    between atoms: _397  and  _398
REMARK  144  A    between atoms: _398  and  _399
REMARK  145  A    between atoms: _399  and  _400
REMARK                            x       y       z     vdW  Elec       q    Type
REMARK                         _______ _______ _______ _____ _____    ______ ____
ROOT
ATOM      1  O   HOH     1      -2.830   4.618   7.217  0.00  0.00    +0.000 OA
ENDROOT
TORSDOF 0
REMARK  Name = ../refined-set-2016/4mo8/4mo8_pocket.pdb
REMARK  145 active torsions:
REMARK  status: ('A' for Active; 'I' for Inactive)
REMARK    1  A    between atoms: _1  and  _3
REMARK    2  A    between atoms: _3  and  _4
REMARK    3  A    between atoms: _3  and  _6
REMARK    4  A    between atoms: _6  and  _7
REMARK    5  A    between atoms: _17  and  _19
REMARK    6  A    between atoms: _19  and  _20
REMARK    7  A    between atoms: _19  and  _22
REMARK    8  A    between atoms: _22  and  _23
REMARK    9  A    between atoms: _28  and  _29
REMARK   10  A    between atoms: _31  and  _33
REMARK   11  A    between atoms: _33  and  _34
REMARK   12  A    between atoms: _33  and  _36
REMARK   13  A    between atoms: _36  and  _37
REMARK   14  A    between atoms: _40  and  _41
REMARK   15  A    between atoms: _46  and  _48
REMARK   16  A    between atoms: _48  and  _49
REMARK   17  A    between atoms: _48  and  _51
REMARK   18  A    between atoms: _51  and  _52
REMARK   19  A    between atoms: _57  and  _59
REMARK   20  A    between atoms: _59  and  _60
REMARK   21  A    between atoms: _59  and  _62
REMARK   22  A    between atoms: _62  and  _63
REMARK   23  A    between atoms: _68  and  _70
REMARK   24  A    between atoms: _70  and  _71
REMARK   25  A    between atoms: _74  and  _76
REMARK   26  A    between atoms: _76  and  _77
REMARK   27  A    between atoms: _76  and  _79
REMARK   28  A    between atoms: _79  and  _80
REMARK   29  A    between atoms: _85  and  _87
REMARK   30  A    between atoms: _87  and  _88
REMARK   31  A    between atoms: _87  and  _90
REMARK   32  A    between atoms: _90  and  _91
REMARK   33  A    between atoms: _94  and  _96
REMARK   34  A    between atoms: _96  and  _97
REMARK   35  A    between atoms: _96  and  _99
REMARK   36  A    between atoms: _99  and  _100
REMARK   37  A    between atoms: _100  and  _101
REMARK   38  A    between atoms: _106  and  _108
REMARK   39  A    between atoms: _108  and  _109
REMARK   40  A    between atoms: _108  and  _111
REMARK   41  A    between atoms: _111  and  _112
REMARK   42  A    between atoms: _118  and  _120
REMARK   43  A    between atoms: _131  and  _134
REMARK   44  A    between atoms: _134  and  _135
REMARK   45  A    between atoms: _143  and  _144
REMARK   46  A    between atoms: _152  and  _154
REMARK   47  A    between atoms: _154  and  _155
REMARK   48  A    between atoms: _154  and  _157
REMARK   49  A    between atoms: _157  and  _158
REMARK   50  A    between atoms: _158  and  _159
REMARK   51  A    between atoms: _162  and  _164
REMARK   52  A    between atoms: _164  and  _165
REMARK   53  A    between atoms: _164  and  _167
REMARK   54  A    between atoms: _167  and  _168
REMARK   55  A    between atoms: _173  and  _175
REMARK   56  A    between atoms: _175  and  _176
REMARK   57  A    between atoms: _175  and  _178
REMARK   58  A    between atoms: _178  and  _179
REMARK   59  A    between atoms: _179  and  _180
REMARK   60  A    between atoms: _183  and  _185
REMARK   61  A    between atoms: _185  and  _186
REMARK   62  A    between atoms: _185  and  _188
REMARK   63  A    between atoms: _188  and  _189
REMARK   64  A    between atoms: _192  and  _194
REMARK   65  A    between atoms: _194  and  _195
REMARK   66  A    between atoms: _194  and  _197
REMARK   67  A    between atoms: _197  and  _198
REMARK   68  A    between atoms: _199  and  ZN_409
REMARK   69  A    between atoms: _203  and  _205
REMARK   70  A    between atoms: _205  and  _206
REMARK   71  A    between atoms: _205  and  _208
REMARK   72  A    between atoms: _208  and  _209
REMARK   73  A    between atoms: _212  and  _214
REMARK   74  A    between atoms: _214  and  _215
REMARK   75  A    between atoms: _214  and  _217
REMARK   76  A    between atoms: _220  and  _222
REMARK   77  A    between atoms: _222  and  _223
REMARK   78  A    between atoms: _222  and  _225
REMARK   79  A    between atoms: _225  and  _226
REMARK   80  A    between atoms: _231  and  _233
REMARK   81  A    between atoms: _233  and  _234
REMARK   82  A    between atoms: _233  and  _236
REMARK   83  A    between atoms: _236  and  _237
REMARK   84  A    between atoms: _243  and  _245
REMARK   85  A    between atoms: _245  and  _246
REMARK   86  A    between atoms: _245  and  _248
REMARK   87  A    between atoms: _251  and  _253
REMARK   88  A    between atoms: _253  and  _254
REMARK   89  A    between atoms: _253  and  _256
REMARK   90  A    between atoms: _256  and  _257
REMARK   91  A    between atoms: _260  and  _262
REMARK   92  A    between atoms: _262  and  _263
REMARK   93  A    between atoms: _266  and  _268
REMARK   94  A    between atoms: _268  and  _269
REMARK   95  A    between atoms: _268  and  _271
REMARK   96  A    between atoms: _274  and  _276
REMARK   97  A    between atoms: _276  and  _277
REMARK   98  A    between atoms: _276  and  _279
REMARK   99  A    between atoms: _279  and  _280
REMARK  100  A    between atoms: _283  and  _285
REMARK  101  A    between atoms: _285  and  _286
REMARK  102  A    between atoms: _285  and  _288
REMARK  103  A    between atoms: _288  and  _289
REMARK  104  A    between atoms: _291  and  _293
REMARK  105  A    between atoms: _293  and  _294
REMARK  106  A    between atoms: _293  and  _296
REMARK  107  A    between atoms: _296  and  _297
REMARK  108  A    between atoms: _300  and  _302
REMARK  109  A    between atoms: _302  and  _303
REMARK  110  A    between atoms: _302  and  _305
REMARK  111  A    between atoms: _305  and  _306
REMARK  112  A    between atoms: _309  and  _311
REMARK  113  A    between atoms: _311  and  _312
REMARK  114  A    between atoms: _311  and  _314
REMARK  115  A    between atoms: _314  and  _315
REMARK  116  A    between atoms: _319  and  _320
REMARK  117  A    between atoms: _326  and  _327
REMARK  118  A    between atoms: _332  and  _334
REMARK  119  A    between atoms: _334  and  _335
REMARK  120  A    between atoms: _334  and  _337
REMARK  121  A    between atoms: _337  and  _338
REMARK  122  A    between atoms: _341  and  _343
REMARK  123  A    between atoms: _343  and  _344
REMARK  124  A    between atoms: _343  and  _346
REMARK  125  A    between atoms: _346  and  _347
REMARK  126  A    between atoms: _350  and  _352
REMARK  127  A    between atoms: _352  and  _353
REMARK  128  A    between atoms: _352  and  _355
REMARK  129  A    between atoms: _357  and  _359
REMARK  130  A    between atoms: _359  and  _360
REMARK  131  A    between atoms: _359  and  _362
REMARK  132  A    between atoms: _365  and  _367
REMARK  133  A    between atoms: _367  and  _368
REMARK  134  A    between atoms: _367  and  _370
REMARK  135  A    between atoms: _370  and  _371
REMARK  136  A    between atoms: _381  and  _383
REMARK  137  A    between atoms: _383  and  _384
REMARK  138  A    between atoms: _383  and  _386
REMARK  139  A    between atoms: _386  and  _387
REMARK  140  A    between atoms: _392  and  _394
REMARK  141  A    between atoms: _394  and  _395
REMARK  142  A    between atoms: _394  and  _397
REMARK  143  A    between atoms: _397  and  _398
REMARK  144  A    between atoms: _398  and  _399
REMARK  145  A    between atoms: _399  and  _400
REMARK                            x       y       z     vdW  Elec       q    Type
REMARK                         _______ _______ _______ _____ _____    ______ ____
ROOT
ATOM      1  O   HOH     1      -6.547   6.634  10.323  0.00  0.00    +0.000 OA
ENDROOT
TORSDOF 0
REMARK  Name = ../refined-set-2016/4mo8/4mo8_pocket.pdb
REMARK  145 active torsions:
REMARK  status: ('A' for Active; 'I' for Inactive)
REMARK    1  A    between atoms: _1  and  _3
REMARK    2  A    between atoms: _3  and  _4
REMARK    3  A    between atoms: _3  and  _6
REMARK    4  A    between atoms: _6  and  _7
REMARK    5  A    between atoms: _17  and  _19
REMARK    6  A    between atoms: _19  and  _20
REMARK    7  A    between atoms: _19  and  _22
REMARK    8  A    between atoms: _22  and  _23
REMARK    9  A    between atoms: _28  and  _29
REMARK   10  A    between atoms: _31  and  _33
REMARK   11  A    between atoms: _33  and  _34
REMARK   12  A    between atoms: _33  and  _36
REMARK   13  A    between atoms: _36  and  _37
REMARK   14  A    between atoms: _40  and  _41
REMARK   15  A    between atoms: _46  and  _48
REMARK   16  A    between atoms: _48  and  _49
REMARK   17  A    between atoms: _48  and  _51
REMARK   18  A    between atoms: _51  and  _52
REMARK   19  A    between atoms: _57  and  _59
REMARK   20  A    between atoms: _59  and  _60
REMARK   21  A    between atoms: _59  and  _62
REMARK   22  A    between atoms: _62  and  _63
REMARK   23  A    between atoms: _68  and  _70
REMARK   24  A    between atoms: _70  and  _71
REMARK   25  A    between atoms: _74  and  _76
REMARK   26  A    between atoms: _76  and  _77
REMARK   27  A    between atoms: _76  and  _79
REMARK   28  A    between atoms: _79  and  _80
REMARK   29  A    between atoms: _85  and  _87
REMARK   30  A    between atoms: _87  and  _88
REMARK   31  A    between atoms: _87  and  _90
REMARK   32  A    between atoms: _90  and  _91
REMARK   33  A    between atoms: _94  and  _96
REMARK   34  A    between atoms: _96  and  _97
REMARK   35  A    between atoms: _96  and  _99
REMARK   36  A    between atoms: _99  and  _100
REMARK   37  A    between atoms: _100  and  _101
REMARK   38  A    between atoms: _106  and  _108
REMARK   39  A    between atoms: _108  and  _109
REMARK   40  A    between atoms: _108  and  _111
REMARK   41  A    between atoms: _111  and  _112
REMARK   42  A    between atoms: _118  and  _120
REMARK   43  A    between atoms: _131  and  _134
REMARK   44  A    between atoms: _134  and  _135
REMARK   45  A    between atoms: _143  and  _144
REMARK   46  A    between atoms: _152  and  _154
REMARK   47  A    between atoms: _154  and  _155
REMARK   48  A    between atoms: _154  and  _157
REMARK   49  A    between atoms: _157  and  _158
REMARK   50  A    between atoms: _158  and  _159
REMARK   51  A    between atoms: _162  and  _164
REMARK   52  A    between atoms: _164  and  _165
REMARK   53  A    between atoms: _164  and  _167
REMARK   54  A    between atoms: _167  and  _168
REMARK   55  A    between atoms: _173  and  _175
REMARK   56  A    between atoms: _175  and  _176
REMARK   57  A    between atoms: _175  and  _178
REMARK   58  A    between atoms: _178  and  _179
REMARK   59  A    between atoms: _179  and  _180
REMARK   60  A    between atoms: _183  and  _185
REMARK   61  A    between atoms: _185  and  _186
REMARK   62  A    between atoms: _185  and  _188
REMARK   63  A    between atoms: _188  and  _189
REMARK   64  A    between atoms: _192  and  _194
REMARK   65  A    between atoms: _194  and  _195
REMARK   66  A    between atoms: _194  and  _197
REMARK   67  A    between atoms: _197  and  _198
REMARK   68  A    between atoms: _199  and  ZN_409
REMARK   69  A    between atoms: _203  and  _205
REMARK   70  A    between atoms: _205  and  _206
REMARK   71  A    between atoms: _205  and  _208
REMARK   72  A    between atoms: _208  and  _209
REMARK   73  A    between atoms: _212  and  _214
REMARK   74  A    between atoms: _214  and  _215
REMARK   75  A    between atoms: _214  and  _217
REMARK   76  A    between atoms: _220  and  _222
REMARK   77  A    between atoms: _222  and  _223
REMARK   78  A    between atoms: _222  and  _225
REMARK   79  A    between atoms: _225  and  _226
REMARK   80  A    between atoms: _231  and  _233
REMARK   81  A    between atoms: _233  and  _234
REMARK   82  A    between atoms: _233  and  _236
REMARK   83  A    between atoms: _236  and  _237
REMARK   84  A    between atoms: _243  and  _245
REMARK   85  A    between atoms: _245  and  _246
REMARK   86  A    between atoms: _245  and  _248
REMARK   87  A    between atoms: _251  and  _253
REMARK   88  A    between atoms: _253  and  _254
REMARK   89  A    between atoms: _253  and  _256
REMARK   90  A    between atoms: _256  and  _257
REMARK   91  A    between atoms: _260  and  _262
REMARK   92  A    between atoms: _262  and  _263
REMARK   93  A    between atoms: _266  and  _268
REMARK   94  A    between atoms: _268  and  _269
REMARK   95  A    between atoms: _268  and  _271
REMARK   96  A    between atoms: _274  and  _276
REMARK   97  A    between atoms: _276  and  _277
REMARK   98  A    between atoms: _276  and  _279
REMARK   99  A    between atoms: _279  and  _280
REMARK  100  A    between atoms: _283  and  _285
REMARK  101  A    between atoms: _285  and  _286
REMARK  102  A    between atoms: _285  and  _288
REMARK  103  A    between atoms: _288  and  _289
REMARK  104  A    between atoms: _291  and  _293
REMARK  105  A    between atoms: _293  and  _294
REMARK  106  A    between atoms: _293  and  _296
REMARK  107  A    between atoms: _296  and  _297
REMARK  108  A    between atoms: _300  and  _302
REMARK  109  A    between atoms: _302  and  _303
REMARK  110  A    between atoms: _302  and  _305
REMARK  111  A    between atoms: _305  and  _306
REMARK  112  A    between atoms: _309  and  _311
REMARK  113  A    between atoms: _311  and  _312
REMARK  114  A    between atoms: _311  and  _314
REMARK  115  A    between atoms: _314  and  _315
REMARK  116  A    between atoms: _319  and  _320
REMARK  117  A    between atoms: _326  and  _327
REMARK  118  A    between atoms: _332  and  _334
REMARK  119  A    between atoms: _334  and  _335
REMARK  120  A    between atoms: _334  and  _337
REMARK  121  A    between atoms: _337  and  _338
REMARK  122  A    between atoms: _341  and  _343
REMARK  123  A    between atoms: _343  and  _344
REMARK  124  A    between atoms: _343  and  _346
REMARK  125  A    between atoms: _346  and  _347
REMARK  126  A    between atoms: _350  and  _352
REMARK  127  A    between atoms: _352  and  _353
REMARK  128  A    between atoms: _352  and  _355
REMARK  129  A    between atoms: _357  and  _359
REMARK  130  A    between atoms: _359  and  _360
REMARK  131  A    between atoms: _359  and  _362
REMARK  132  A    between atoms: _365  and  _367
REMARK  133  A    between atoms: _367  and  _368
REMARK  134  A    between atoms: _367  and  _370
REMARK  135  A    between atoms: _370  and  _371
REMARK  136  A    between atoms: _381  and  _383
REMARK  137  A    between atoms: _383  and  _384
REMARK  138  A    between atoms: _383  and  _386
REMARK  139  A    between atoms: _386  and  _387
REMARK  140  A    between atoms: _392  and  _394
REMARK  141  A    between atoms: _394  and  _395
REMARK  142  A    between atoms: _394  and  _397
REMARK  143  A    between atoms: _397  and  _398
REMARK  144  A    between atoms: _398  and  _399
REMARK  145  A    between atoms: _399  and  _400
REMARK                            x       y       z     vdW  Elec       q    Type
REMARK                         _______ _______ _______ _____ _____    ______ ____
ROOT
ATOM      1  O   HOH     1       3.102  -0.953   8.528  0.00  0.00    +0.000 OA
ENDROOT
TORSDOF 0
