REMARK  Name = ../refined-set-2016/3ozg/3ozg_pocket.pdb
REMARK  262 active torsions:
REMARK  status: ('A' for Active; 'I' for Inactive)
REMARK    1  A    between atoms: _1  and  _3
REMARK    2  A    between atoms: _3  and  _4
REMARK    3  A    between atoms: _3  and  _6
REMARK    4  A    between atoms: _6  and  _7
REMARK    5  A    between atoms: _10  and  _12
REMARK    6  A    between atoms: _12  and  _13
REMARK    7  A    between atoms: _12  and  _15
REMARK    8  A    between atoms: _15  and  _16
REMARK    9  A    between atoms: _19  and  _21
REMARK   10  A    between atoms: _21  and  _22
REMARK   11  A    between atoms: _21  and  _24
REMARK   12  A    between atoms: _24  and  _25
REMARK   13  A    between atoms: _25  and  _26
REMARK   14  A    between atoms: _26  and  _27
REMARK   15  A    between atoms: _27  and  _28
REMARK   16  A    between atoms: _32  and  _34
REMARK   17  A    between atoms: _34  and  _35
REMARK   18  A    between atoms: _37  and  _39
REMARK   19  A    between atoms: _39  and  _40
REMARK   20  A    between atoms: _39  and  _42
REMARK   21  A    between atoms: _42  and  _43
REMARK   22  A    between atoms: _45  and  _47
REMARK   23  A    between atoms: _47  and  _48
REMARK   24  A    between atoms: _47  and  _50
REMARK   25  A    between atoms: _50  and  _51
REMARK   26  A    between atoms: _51  and  _52
REMARK   27  A    between atoms: _52  and  _53
REMARK   28  A    between atoms: _62  and  _64
REMARK   29  A    between atoms: _64  and  _65
REMARK   30  A    between atoms: _64  and  _67
REMARK   31  A    between atoms: _67  and  _68
REMARK   32  A    between atoms: _68  and  _69
REMARK   33  A    between atoms: _69  and  _70
REMARK   34  A    between atoms: _79  and  _81
REMARK   35  A    between atoms: _81  and  _82
REMARK   36  A    between atoms: _81  and  _84
REMARK   37  A    between atoms: _87  and  _89
REMARK   38  A    between atoms: _89  and  _90
REMARK   39  A    between atoms: _89  and  _92
REMARK   40  A    between atoms: _92  and  _93
REMARK   41  A    between atoms: _93  and  _94
REMARK   42  A    between atoms: _94  and  _95
REMARK   43  A    between atoms: _95  and  _96
REMARK   44  A    between atoms: _100  and  _102
REMARK   45  A    between atoms: _102  and  _103
REMARK   46  A    between atoms: _102  and  _105
REMARK   47  A    between atoms: _105  and  _106
REMARK   48  A    between atoms: _108  and  _110
REMARK   49  A    between atoms: _110  and  _111
REMARK   50  A    between atoms: _110  and  _113
REMARK   51  A    between atoms: _113  and  _114
REMARK   52  A    between atoms: _119  and  _120
REMARK   53  A    between atoms: _122  and  _124
REMARK   54  A    between atoms: _124  and  _125
REMARK   55  A    between atoms: _124  and  _127
REMARK   56  A    between atoms: _129  and  _131
REMARK   57  A    between atoms: _131  and  _132
REMARK   58  A    between atoms: _131  and  _134
REMARK   59  A    between atoms: _134  and  _135
REMARK   60  A    between atoms: _140  and  _142
REMARK   61  A    between atoms: _142  and  _143
REMARK   62  A    between atoms: _142  and  _145
REMARK   63  A    between atoms: _145  and  _146
REMARK   64  A    between atoms: _149  and  _151
REMARK   65  A    between atoms: _151  and  _152
REMARK   66  A    between atoms: _151  and  _154
REMARK   67  A    between atoms: _154  and  _155
REMARK   68  A    between atoms: _155  and  _156
REMARK   69  A    between atoms: _161  and  _163
REMARK   70  A    between atoms: _163  and  _164
REMARK   71  A    between atoms: _163  and  _166
REMARK   72  A    between atoms: _166  and  _167
REMARK   73  A    between atoms: _169  and  _171
REMARK   74  A    between atoms: _171  and  _172
REMARK   75  A    between atoms: _171  and  _174
REMARK   76  A    between atoms: _174  and  _175
REMARK   77  A    between atoms: _178  and  _180
REMARK   78  A    between atoms: _180  and  _181
REMARK   79  A    between atoms: _183  and  _185
REMARK   80  A    between atoms: _185  and  _186
REMARK   81  A    between atoms: _185  and  _188
REMARK   82  A    between atoms: _188  and  _189
REMARK   83  A    between atoms: _192  and  _194
REMARK   84  A    between atoms: _194  and  _195
REMARK   85  A    between atoms: _194  and  _197
REMARK   86  A    between atoms: _197  and  _198
REMARK   87  A    between atoms: _201  and  _203
REMARK   88  A    between atoms: _203  and  _204
REMARK   89  A    between atoms: _203  and  _206
REMARK   90  A    between atoms: _209  and  _211
REMARK   91  A    between atoms: _211  and  _212
REMARK   92  A    between atoms: _211  and  _214
REMARK   93  A    between atoms: _214  and  _215
REMARK   94  A    between atoms: _215  and  _216
REMARK   95  A    between atoms: _219  and  _221
REMARK   96  A    between atoms: _221  and  _222
REMARK   97  A    between atoms: _221  and  _224
REMARK   98  A    between atoms: _224  and  _225
REMARK   99  A    between atoms: _228  and  _230
REMARK  100  A    between atoms: _230  and  _231
REMARK  101  A    between atoms: _230  and  _233
REMARK  102  A    between atoms: _233  and  _234
REMARK  103  A    between atoms: _237  and  _239
REMARK  104  A    between atoms: _239  and  _240
REMARK  105  A    between atoms: _239  and  _242
REMARK  106  A    between atoms: _242  and  _243
REMARK  107  A    between atoms: _246  and  _248
REMARK  108  A    between atoms: _248  and  _249
REMARK  109  A    between atoms: _248  and  _251
REMARK  110  A    between atoms: _251  and  _252
REMARK  111  A    between atoms: _255  and  _257
REMARK  112  A    between atoms: _257  and  _258
REMARK  113  A    between atoms: _257  and  _260
REMARK  114  A    between atoms: _260  and  _261
REMARK  115  A    between atoms: _264  and  _266
REMARK  116  A    between atoms: _266  and  _267
REMARK  117  A    between atoms: _269  and  _271
REMARK  118  A    between atoms: _271  and  _272
REMARK  119  A    between atoms: _271  and  _274
REMARK  120  A    between atoms: _274  and  _275
REMARK  121  A    between atoms: _275  and  _276
REMARK  122  A    between atoms: _276  and  _277
REMARK  123  A    between atoms: _277  and  _278
REMARK  124  A    between atoms: _282  and  _284
REMARK  125  A    between atoms: _284  and  _285
REMARK  126  A    between atoms: _284  and  _287
REMARK  127  A    between atoms: _287  and  _288
REMARK  128  A    between atoms: _291  and  _293
REMARK  129  A    between atoms: _293  and  _294
REMARK  130  A    between atoms: _293  and  _296
REMARK  131  A    between atoms: _296  and  _297
REMARK  132  A    between atoms: _300  and  _302
REMARK  133  A    between atoms: _302  and  _303
REMARK  134  A    between atoms: _302  and  _305
REMARK  135  A    between atoms: _308  and  _310
REMARK  136  A    between atoms: _310  and  _311
REMARK  137  A    between atoms: _310  and  _313
REMARK  138  A    between atoms: _313  and  _314
REMARK  139  A    between atoms: _314  and  _315
REMARK  140  A    between atoms: _315  and  _316
REMARK  141  A    between atoms: _316  and  _317
REMARK  142  A    between atoms: _321  and  _323
REMARK  143  A    between atoms: _323  and  _324
REMARK  144  A    between atoms: _323  and  _326
REMARK  145  A    between atoms: _326  and  _327
REMARK  146  A    between atoms: _333  and  _335
REMARK  147  A    between atoms: _335  and  _336
REMARK  148  A    between atoms: _335  and  _338
REMARK  149  A    between atoms: _340  and  _342
REMARK  150  A    between atoms: _342  and  _343
REMARK  151  A    between atoms: _342  and  _345
REMARK  152  A    between atoms: _345  and  _346
REMARK  153  A    between atoms: _352  and  _354
REMARK  154  A    between atoms: _354  and  _355
REMARK  155  A    between atoms: _354  and  _357
REMARK  156  A    between atoms: _357  and  _358
REMARK  157  A    between atoms: _358  and  _359
REMARK  158  A    between atoms: _359  and  _360
REMARK  159  A    between atoms: _360  and  _361
REMARK  160  A    between atoms: _365  and  _367
REMARK  161  A    between atoms: _367  and  _368
REMARK  162  A    between atoms: _367  and  _370
REMARK  163  A    between atoms: _370  and  _371
REMARK  164  A    between atoms: _374  and  _376
REMARK  165  A    between atoms: _376  and  _377
REMARK  166  A    between atoms: _376  and  _379
REMARK  167  A    between atoms: _379  and  _380
REMARK  168  A    between atoms: _383  and  _385
REMARK  169  A    between atoms: _385  and  _386
REMARK  170  A    between atoms: _385  and  _388
REMARK  171  A    between atoms: _388  and  _389
REMARK  172  A    between atoms: _399  and  _401
REMARK  173  A    between atoms: _401  and  _402
REMARK  174  A    between atoms: _401  and  _404
REMARK  175  A    between atoms: _404  and  _405
REMARK  176  A    between atoms: _410  and  _412
REMARK  177  A    between atoms: _412  and  _413
REMARK  178  A    between atoms: _412  and  _415
REMARK  179  A    between atoms: _415  and  _416
REMARK  180  A    between atoms: _422  and  _424
REMARK  181  A    between atoms: _424  and  _425
REMARK  182  A    between atoms: _424  and  _427
REMARK  183  A    between atoms: _427  and  _428
REMARK  184  A    between atoms: _432  and  _433
REMARK  185  A    between atoms: _438  and  _440
REMARK  186  A    between atoms: _440  and  _441
REMARK  187  A    between atoms: _440  and  _443
REMARK  188  A    between atoms: _443  and  _444
REMARK  189  A    between atoms: _447  and  _449
REMARK  190  A    between atoms: _449  and  _450
REMARK  191  A    between atoms: _449  and  _452
REMARK  192  A    between atoms: _452  and  _453
REMARK  193  A    between atoms: _458  and  _460
REMARK  194  A    between atoms: _460  and  _461
REMARK  195  A    between atoms: _460  and  _463
REMARK  196  A    between atoms: _463  and  _464
REMARK  197  A    between atoms: _470  and  _472
REMARK  198  A    between atoms: _472  and  _473
REMARK  199  A    between atoms: _472  and  _475
REMARK  200  A    between atoms: _478  and  _480
REMARK  201  A    between atoms: _480  and  _481
REMARK  202  A    between atoms: _480  and  _483
REMARK  203  A    between atoms: _486  and  _488
REMARK  204  A    between atoms: _488  and  _489
REMARK  205  A    between atoms: _491  and  _493
REMARK  206  A    between atoms: _493  and  _494
REMARK  207  A    between atoms: _493  and  _496
REMARK  208  A    between atoms: _496  and  _497
REMARK  209  A    between atoms: _499  and  _501
REMARK  210  A    between atoms: _501  and  _502
REMARK  211  A    between atoms: _501  and  _504
REMARK  212  A    between atoms: _504  and  _505
REMARK  213  A    between atoms: _508  and  _510
REMARK  214  A    between atoms: _510  and  _511
REMARK  215  A    between atoms: _510  and  _513
REMARK  216  A    between atoms: _513  and  _514
REMARK  217  A    between atoms: _514  and  _515
REMARK  218  A    between atoms: _515  and  MG_622
REMARK  219  A    between atoms: _517  and  _519
REMARK  220  A    between atoms: _519  and  _520
REMARK  221  A    between atoms: _519  and  _522
REMARK  222  A    between atoms: _522  and  _523
REMARK  223  A    between atoms: _528  and  _529
REMARK  224  A    between atoms: _531  and  _533
REMARK  225  A    between atoms: _533  and  _534
REMARK  226  A    between atoms: _533  and  _536
REMARK  227  A    between atoms: _536  and  _537
REMARK  228  A    between atoms: _542  and  _544
REMARK  229  A    between atoms: _544  and  _545
REMARK  230  A    between atoms: _544  and  _547
REMARK  231  A    between atoms: _547  and  _548
REMARK  232  A    between atoms: _548  and  _549
REMARK  233  A    between atoms: _552  and  _554
REMARK  234  A    between atoms: _554  and  _555
REMARK  235  A    between atoms: _554  and  _557
REMARK  236  A    between atoms: _557  and  _558
REMARK  237  A    between atoms: _561  and  _563
REMARK  238  A    between atoms: _563  and  _564
REMARK  239  A    between atoms: _563  and  _566
REMARK  240  A    between atoms: _566  and  _567
REMARK  241  A    between atoms: _567  and  _568
REMARK  242  A    between atoms: _568  and  _569
REMARK  243  A    between atoms: _578  and  _580
REMARK  244  A    between atoms: _580  and  _581
REMARK  245  A    between atoms: _580  and  _583
REMARK  246  A    between atoms: _585  and  _587
REMARK  247  A    between atoms: _587  and  _588
REMARK  248  A    between atoms: _587  and  _590
REMARK  249  A    between atoms: _592  and  _594
REMARK  250  A    between atoms: _594  and  _595
REMARK  251  A    between atoms: _594  and  _597
REMARK  252  A    between atoms: _597  and  _598
REMARK  253  A    between atoms: _601  and  _603
REMARK  254  A    between atoms: _603  and  _604
REMARK  255  A    between atoms: _603  and  _606
REMARK  256  A    between atoms: _609  and  _611
REMARK  257  A    between atoms: _611  and  _612
REMARK  258  A    between atoms: _611  and  _614
REMARK  259  A    between atoms: _614  and  _615
REMARK  260  A    between atoms: _615  and  _616
REMARK  261  A    between atoms: _616  and  _617
REMARK  262  A    between atoms: _617  and  _618
REMARK                            x       y       z     vdW  Elec       q    Type
REMARK                         _______ _______ _______ _____ _____    ______ ____
ROOT
ATOM      1  C   LYS A   3      54.187  37.064  77.053  0.00  0.00    +0.241 C 
ATOM      2  O   LYS A   3      53.573  37.925  77.670  0.00  0.00    -0.273 OA
ATOM      3  N   GLY A   4      55.510  37.116  76.854  0.00  0.00    -0.295 N 
ATOM      4  H   GLY A   4      55.957  36.427  76.216  0.00  0.00    +0.150 HD
ENDROOT
BRANCH   3   5
ATOM      5  CA  GLY A   4      56.337  38.120  77.514  0.00  0.00    +0.176 C 
BRANCH   5   6
ATOM      6  C   GLY A   4      56.140  39.579  77.111  0.00  0.00    +0.243 C 
ATOM      7  O   GLY A   4      56.366  40.469  77.917  0.00  0.00    -0.273 OA
ATOM      8  N   SER A   5      55.711  39.833  75.877  0.00  0.00    -0.295 N 
ATOM      9  H   SER A   5      55.496  39.052  75.225  0.00  0.00    +0.150 HD
BRANCH   8  10
ATOM     10  CA  SER A   5      55.545  41.219  75.447  0.00  0.00    +0.178 C 
BRANCH  10  11
ATOM     11  C   SER A   5      54.181  41.786  75.818  0.00  0.00    +0.243 C 
ATOM     12  N   ARG A   6      53.412  41.036  76.594  0.00  0.00    -0.298 N 
ATOM     13  H   ARG A   6      53.747  40.115  76.942  0.00  0.00    +0.150 HD
ATOM     14  O   SER A   5      53.838  42.913  75.451  0.00  0.00    -0.273 OA
BRANCH  12  15
ATOM     15  CA  ARG A   6      52.094  41.527  76.948  0.00  0.00    +0.137 C 
BRANCH  15  16
ATOM     16  C   ARG A   6      52.106  42.890  77.688  0.00  0.00    +0.227 C 
ATOM     17  O   ARG A   6      51.379  43.809  77.295  0.00  0.00    -0.286 OA
ENDBRANCH  15  16
BRANCH  15  18
ATOM     18  CB  ARG A   6      51.325  40.475  77.721  0.00  0.00    +0.031 C 
BRANCH  18  19
ATOM     19  CG  ARG A   6      49.900  40.893  78.017  0.00  0.00    +0.045 C 
BRANCH  19  20
ATOM     20  CD  ARG A   6      49.836  41.481  79.378  0.00  0.00    +0.174 C 
BRANCH  20  21
ATOM     21  NE  ARG A   6      50.157  40.489  80.407  0.00  0.00    -0.265 N 
ATOM     22  CZ  ARG A   6      50.404  40.803  81.676  0.00  0.00    +0.342 C 
ATOM     23  NH2 ARG A   6      50.718  39.865  82.555  0.00  0.00    -0.292 N 
ATOM     24 HH21 ARG A   6      50.909  40.122  83.544  0.00  0.00    +0.255 HD
ATOM     25 HH22 ARG A   6      50.774  38.870  82.256  0.00  0.00    +0.255 HD
ATOM     26  NH1 ARG A   6      50.355  42.070  82.062  0.00  0.00    -0.292 N 
ATOM     27 HH11 ARG A   6      50.547  42.319  83.053  0.00  0.00    +0.255 HD
ATOM     28 HH12 ARG A   6      50.124  42.815  81.374  0.00  0.00    +0.255 HD
ATOM     29  HE  ARG A   6      50.194  39.487  80.131  0.00  0.00    +0.259 HD
ENDBRANCH  20  21
ENDBRANCH  19  20
ENDBRANCH  18  19
ENDBRANCH  15  18
ENDBRANCH  12  15
ENDBRANCH  10  11
BRANCH  10  30
ATOM     30  CB  SER A   5      55.808  41.362  73.950  0.00  0.00    +0.166 C 
BRANCH  30  31
ATOM     31  OG  SER A   5      54.720  40.869  73.220  0.00  0.00    -0.380 OA
ATOM     32  H   SER A   5      54.585  39.912  73.436  0.00  0.00    +0.211 HD
ENDBRANCH  30  31
ENDBRANCH  10  30
ENDBRANCH   8  10
ENDBRANCH   5   6
ENDBRANCH   3   5
BRANCH   1  33
ATOM     33  CA  LYS A   3      53.451  35.826  76.546  0.00  0.00    +0.149 C 
BRANCH  33  35
ATOM     34  C   LEU A   2      53.921  35.380  74.115  0.00  0.00    +0.241 C 
ATOM     35  N   LYS A   3      54.084  35.127  75.416  0.00  0.00    -0.297 N 
ATOM     36  H   LYS A   3      54.731  34.349  75.658  0.00  0.00    +0.150 HD
ATOM     37  O   LEU A   2      54.552  34.775  73.254  0.00  0.00    -0.273 OA
BRANCH  34  38
ATOM     38  CA  LEU A   2      52.969  36.466  73.688  0.00  0.00    +0.149 C 
BRANCH  38  41
ATOM     39  C   LEU A   1      54.376  37.857  72.180  0.00  0.00    +0.238 C 
ATOM     40  O   LEU A   1      55.183  38.174  73.046  0.00  0.00    -0.274 OA
ATOM     41  N   LEU A   2      53.365  37.015  72.383  0.00  0.00    -0.297 N 
ATOM     42  H   LEU A   2      52.811  36.722  71.553  0.00  0.00    +0.150 HD
BRANCH  39  43
ATOM     43  CA  LEU A   1      54.481  38.428  70.756  0.00  0.00    +0.145 C 
BRANCH  43  44
ATOM     44  N   LEU A   1      53.777  39.692  70.633  0.00  0.00    -0.238 NA
ATOM     45  H   LEU A   1      54.319  40.574  70.735  0.00  0.00    +0.142 HD
ENDBRANCH  43  44
BRANCH  43  46
ATOM     46  CB  LEU A   1      55.949  38.601  70.313  0.00  0.00    +0.026 C 
BRANCH  46  47
ATOM     47  CG  LEU A   1      56.138  38.167  68.841  0.00  0.00    +0.002 C 
ATOM     48  CD2 LEU A   1      57.553  38.343  68.285  0.00  0.00    +0.000 C 
ATOM     49  CD1 LEU A   1      55.122  38.760  67.910  0.00  0.00    +0.000 C 
ENDBRANCH  46  47
ENDBRANCH  43  46
ENDBRANCH  39  43
ENDBRANCH  38  41
BRANCH  38  50
ATOM     50  CB  LEU A   2      51.561  35.891  73.589  0.00  0.00    +0.029 C 
BRANCH  50  51
ATOM     51  CG  LEU A   2      50.466  36.934  73.454  0.00  0.00    +0.002 C 
ATOM     52  CD2 LEU A   2      50.487  37.922  74.651  0.00  0.00    +0.000 C 
ATOM     53  CD1 LEU A   2      49.132  36.205  73.367  0.00  0.00    +0.000 C 
ENDBRANCH  50  51
ENDBRANCH  38  50
ENDBRANCH  34  38
ENDBRANCH  33  35
BRANCH  33  54
ATOM     54  CB  LYS A   3      53.371  34.883  77.747  0.00  0.00    +0.029 C 
BRANCH  54  55
ATOM     55  CG  LYS A   3      52.716  33.530  77.520  0.00  0.00    +0.000 C 
BRANCH  55  56
ATOM     56  CD  LYS A   3      52.590  32.797  78.872  0.00  0.00    -0.024 C 
BRANCH  56  57
ATOM     57  CE  LYS A   3      52.040  31.362  78.724  0.00  0.00    -0.086 C 
BRANCH  57  58
ATOM     58  NZ  LYS A   3      51.708  30.779  80.069  0.00  0.00    +0.380 N 
ATOM     59  HZ1 LYS A   3      52.567  30.752  80.655  0.00  0.00    -0.089 HD
ATOM     60  HZ2 LYS A   3      50.988  31.369  80.533  0.00  0.00    -0.089 HD
ATOM     61  HZ3 LYS A   3      51.340  29.814  79.946  0.00  0.00    -0.089 HD
ENDBRANCH  57  58
ENDBRANCH  56  57
ENDBRANCH  55  56
ENDBRANCH  54  55
ENDBRANCH  33  54
ENDBRANCH   1  33
TORSDOF 27
REMARK  Name = ../refined-set-2016/3ozg/3ozg_pocket.pdb
REMARK  262 active torsions:
REMARK  status: ('A' for Active; 'I' for Inactive)
REMARK    1  A    between atoms: _1  and  _3
REMARK    2  A    between atoms: _3  and  _4
REMARK    3  A    between atoms: _3  and  _6
REMARK    4  A    between atoms: _6  and  _7
REMARK    5  A    between atoms: _10  and  _12
REMARK    6  A    between atoms: _12  and  _13
REMARK    7  A    between atoms: _12  and  _15
REMARK    8  A    between atoms: _15  and  _16
REMARK    9  A    between atoms: _19  and  _21
REMARK   10  A    between atoms: _21  and  _22
REMARK   11  A    between atoms: _21  and  _24
REMARK   12  A    between atoms: _24  and  _25
REMARK   13  A    between atoms: _25  and  _26
REMARK   14  A    between atoms: _26  and  _27
REMARK   15  A    between atoms: _27  and  _28
REMARK   16  A    between atoms: _32  and  _34
REMARK   17  A    between atoms: _34  and  _35
REMARK   18  A    between atoms: _37  and  _39
REMARK   19  A    between atoms: _39  and  _40
REMARK   20  A    between atoms: _39  and  _42
REMARK   21  A    between atoms: _42  and  _43
REMARK   22  A    between atoms: _45  and  _47
REMARK   23  A    between atoms: _47  and  _48
REMARK   24  A    between atoms: _47  and  _50
REMARK   25  A    between atoms: _50  and  _51
REMARK   26  A    between atoms: _51  and  _52
REMARK   27  A    between atoms: _52  and  _53
REMARK   28  A    between atoms: _62  and  _64
REMARK   29  A    between atoms: _64  and  _65
REMARK   30  A    between atoms: _64  and  _67
REMARK   31  A    between atoms: _67  and  _68
REMARK   32  A    between atoms: _68  and  _69
REMARK   33  A    between atoms: _69  and  _70
REMARK   34  A    between atoms: _79  and  _81
REMARK   35  A    between atoms: _81  and  _82
REMARK   36  A    between atoms: _81  and  _84
REMARK   37  A    between atoms: _87  and  _89
REMARK   38  A    between atoms: _89  and  _90
REMARK   39  A    between atoms: _89  and  _92
REMARK   40  A    between atoms: _92  and  _93
REMARK   41  A    between atoms: _93  and  _94
REMARK   42  A    between atoms: _94  and  _95
REMARK   43  A    between atoms: _95  and  _96
REMARK   44  A    between atoms: _100  and  _102
REMARK   45  A    between atoms: _102  and  _103
REMARK   46  A    between atoms: _102  and  _105
REMARK   47  A    between atoms: _105  and  _106
REMARK   48  A    between atoms: _108  and  _110
REMARK   49  A    between atoms: _110  and  _111
REMARK   50  A    between atoms: _110  and  _113
REMARK   51  A    between atoms: _113  and  _114
REMARK   52  A    between atoms: _119  and  _120
REMARK   53  A    between atoms: _122  and  _124
REMARK   54  A    between atoms: _124  and  _125
REMARK   55  A    between atoms: _124  and  _127
REMARK   56  A    between atoms: _129  and  _131
REMARK   57  A    between atoms: _131  and  _132
REMARK   58  A    between atoms: _131  and  _134
REMARK   59  A    between atoms: _134  and  _135
REMARK   60  A    between atoms: _140  and  _142
REMARK   61  A    between atoms: _142  and  _143
REMARK   62  A    between atoms: _142  and  _145
REMARK   63  A    between atoms: _145  and  _146
REMARK   64  A    between atoms: _149  and  _151
REMARK   65  A    between atoms: _151  and  _152
REMARK   66  A    between atoms: _151  and  _154
REMARK   67  A    between atoms: _154  and  _155
REMARK   68  A    between atoms: _155  and  _156
REMARK   69  A    between atoms: _161  and  _163
REMARK   70  A    between atoms: _163  and  _164
REMARK   71  A    between atoms: _163  and  _166
REMARK   72  A    between atoms: _166  and  _167
REMARK   73  A    between atoms: _169  and  _171
REMARK   74  A    between atoms: _171  and  _172
REMARK   75  A    between atoms: _171  and  _174
REMARK   76  A    between atoms: _174  and  _175
REMARK   77  A    between atoms: _178  and  _180
REMARK   78  A    between atoms: _180  and  _181
REMARK   79  A    between atoms: _183  and  _185
REMARK   80  A    between atoms: _185  and  _186
REMARK   81  A    between atoms: _185  and  _188
REMARK   82  A    between atoms: _188  and  _189
REMARK   83  A    between atoms: _192  and  _194
REMARK   84  A    between atoms: _194  and  _195
REMARK   85  A    between atoms: _194  and  _197
REMARK   86  A    between atoms: _197  and  _198
REMARK   87  A    between atoms: _201  and  _203
REMARK   88  A    between atoms: _203  and  _204
REMARK   89  A    between atoms: _203  and  _206
REMARK   90  A    between atoms: _209  and  _211
REMARK   91  A    between atoms: _211  and  _212
REMARK   92  A    between atoms: _211  and  _214
REMARK   93  A    between atoms: _214  and  _215
REMARK   94  A    between atoms: _215  and  _216
REMARK   95  A    between atoms: _219  and  _221
REMARK   96  A    between atoms: _221  and  _222
REMARK   97  A    between atoms: _221  and  _224
REMARK   98  A    between atoms: _224  and  _225
REMARK   99  A    between atoms: _228  and  _230
REMARK  100  A    between atoms: _230  and  _231
REMARK  101  A    between atoms: _230  and  _233
REMARK  102  A    between atoms: _233  and  _234
REMARK  103  A    between atoms: _237  and  _239
REMARK  104  A    between atoms: _239  and  _240
REMARK  105  A    between atoms: _239  and  _242
REMARK  106  A    between atoms: _242  and  _243
REMARK  107  A    between atoms: _246  and  _248
REMARK  108  A    between atoms: _248  and  _249
REMARK  109  A    between atoms: _248  and  _251
REMARK  110  A    between atoms: _251  and  _252
REMARK  111  A    between atoms: _255  and  _257
REMARK  112  A    between atoms: _257  and  _258
REMARK  113  A    between atoms: _257  and  _260
REMARK  114  A    between atoms: _260  and  _261
REMARK  115  A    between atoms: _264  and  _266
REMARK  116  A    between atoms: _266  and  _267
REMARK  117  A    between atoms: _269  and  _271
REMARK  118  A    between atoms: _271  and  _272
REMARK  119  A    between atoms: _271  and  _274
REMARK  120  A    between atoms: _274  and  _275
REMARK  121  A    between atoms: _275  and  _276
REMARK  122  A    between atoms: _276  and  _277
REMARK  123  A    between atoms: _277  and  _278
REMARK  124  A    between atoms: _282  and  _284
REMARK  125  A    between atoms: _284  and  _285
REMARK  126  A    between atoms: _284  and  _287
REMARK  127  A    between atoms: _287  and  _288
REMARK  128  A    between atoms: _291  and  _293
REMARK  129  A    between atoms: _293  and  _294
REMARK  130  A    between atoms: _293  and  _296
REMARK  131  A    between atoms: _296  and  _297
REMARK  132  A    between atoms: _300  and  _302
REMARK  133  A    between atoms: _302  and  _303
REMARK  134  A    between atoms: _302  and  _305
REMARK  135  A    between atoms: _308  and  _310
REMARK  136  A    between atoms: _310  and  _311
REMARK  137  A    between atoms: _310  and  _313
REMARK  138  A    between atoms: _313  and  _314
REMARK  139  A    between atoms: _314  and  _315
REMARK  140  A    between atoms: _315  and  _316
REMARK  141  A    between atoms: _316  and  _317
REMARK  142  A    between atoms: _321  and  _323
REMARK  143  A    between atoms: _323  and  _324
REMARK  144  A    between atoms: _323  and  _326
REMARK  145  A    between atoms: _326  and  _327
REMARK  146  A    between atoms: _333  and  _335
REMARK  147  A    between atoms: _335  and  _336
REMARK  148  A    between atoms: _335  and  _338
REMARK  149  A    between atoms: _340  and  _342
REMARK  150  A    between atoms: _342  and  _343
REMARK  151  A    between atoms: _342  and  _345
REMARK  152  A    between atoms: _345  and  _346
REMARK  153  A    between atoms: _352  and  _354
REMARK  154  A    between atoms: _354  and  _355
REMARK  155  A    between atoms: _354  and  _357
REMARK  156  A    between atoms: _357  and  _358
REMARK  157  A    between atoms: _358  and  _359
REMARK  158  A    between atoms: _359  and  _360
REMARK  159  A    between atoms: _360  and  _361
REMARK  160  A    between atoms: _365  and  _367
REMARK  161  A    between atoms: _367  and  _368
REMARK  162  A    between atoms: _367  and  _370
REMARK  163  A    between atoms: _370  and  _371
REMARK  164  A    between atoms: _374  and  _376
REMARK  165  A    between atoms: _376  and  _377
REMARK  166  A    between atoms: _376  and  _379
REMARK  167  A    between atoms: _379  and  _380
REMARK  168  A    between atoms: _383  and  _385
REMARK  169  A    between atoms: _385  and  _386
REMARK  170  A    between atoms: _385  and  _388
REMARK  171  A    between atoms: _388  and  _389
REMARK  172  A    between atoms: _399  and  _401
REMARK  173  A    between atoms: _401  and  _402
REMARK  174  A    between atoms: _401  and  _404
REMARK  175  A    between atoms: _404  and  _405
REMARK  176  A    between atoms: _410  and  _412
REMARK  177  A    between atoms: _412  and  _413
REMARK  178  A    between atoms: _412  and  _415
REMARK  179  A    between atoms: _415  and  _416
REMARK  180  A    between atoms: _422  and  _424
REMARK  181  A    between atoms: _424  and  _425
REMARK  182  A    between atoms: _424  and  _427
REMARK  183  A    between atoms: _427  and  _428
REMARK  184  A    between atoms: _432  and  _433
REMARK  185  A    between atoms: _438  and  _440
REMARK  186  A    between atoms: _440  and  _441
REMARK  187  A    between atoms: _440  and  _443
REMARK  188  A    between atoms: _443  and  _444
REMARK  189  A    between atoms: _447  and  _449
REMARK  190  A    between atoms: _449  and  _450
REMARK  191  A    between atoms: _449  and  _452
REMARK  192  A    between atoms: _452  and  _453
REMARK  193  A    between atoms: _458  and  _460
REMARK  194  A    between atoms: _460  and  _461
REMARK  195  A    between atoms: _460  and  _463
REMARK  196  A    between atoms: _463  and  _464
REMARK  197  A    between atoms: _470  and  _472
REMARK  198  A    between atoms: _472  and  _473
REMARK  199  A    between atoms: _472  and  _475
REMARK  200  A    between atoms: _478  and  _480
REMARK  201  A    between atoms: _480  and  _481
REMARK  202  A    between atoms: _480  and  _483
REMARK  203  A    between atoms: _486  and  _488
REMARK  204  A    between atoms: _488  and  _489
REMARK  205  A    between atoms: _491  and  _493
REMARK  206  A    between atoms: _493  and  _494
REMARK  207  A    between atoms: _493  and  _496
REMARK  208  A    between atoms: _496  and  _497
REMARK  209  A    between atoms: _499  and  _501
REMARK  210  A    between atoms: _501  and  _502
REMARK  211  A    between atoms: _501  and  _504
REMARK  212  A    between atoms: _504  and  _505
REMARK  213  A    between atoms: _508  and  _510
REMARK  214  A    between atoms: _510  and  _511
REMARK  215  A    between atoms: _510  and  _513
REMARK  216  A    between atoms: _513  and  _514
REMARK  217  A    between atoms: _514  and  _515
REMARK  218  A    between atoms: _515  and  MG_622
REMARK  219  A    between atoms: _517  and  _519
REMARK  220  A    between atoms: _519  and  _520
REMARK  221  A    between atoms: _519  and  _522
REMARK  222  A    between atoms: _522  and  _523
REMARK  223  A    between atoms: _528  and  _529
REMARK  224  A    between atoms: _531  and  _533
REMARK  225  A    between atoms: _533  and  _534
REMARK  226  A    between atoms: _533  and  _536
REMARK  227  A    between atoms: _536  and  _537
REMARK  228  A    between atoms: _542  and  _544
REMARK  229  A    between atoms: _544  and  _545
REMARK  230  A    between atoms: _544  and  _547
REMARK  231  A    between atoms: _547  and  _548
REMARK  232  A    between atoms: _548  and  _549
REMARK  233  A    between atoms: _552  and  _554
REMARK  234  A    between atoms: _554  and  _555
REMARK  235  A    between atoms: _554  and  _557
REMARK  236  A    between atoms: _557  and  _558
REMARK  237  A    between atoms: _561  and  _563
REMARK  238  A    between atoms: _563  and  _564
REMARK  239  A    between atoms: _563  and  _566
REMARK  240  A    between atoms: _566  and  _567
REMARK  241  A    between atoms: _567  and  _568
REMARK  242  A    between atoms: _568  and  _569
REMARK  243  A    between atoms: _578  and  _580
REMARK  244  A    between atoms: _580  and  _581
REMARK  245  A    between atoms: _580  and  _583
REMARK  246  A    between atoms: _585  and  _587
REMARK  247  A    between atoms: _587  and  _588
REMARK  248  A    between atoms: _587  and  _590
REMARK  249  A    between atoms: _592  and  _594
REMARK  250  A    between atoms: _594  and  _595
REMARK  251  A    between atoms: _594  and  _597
REMARK  252  A    between atoms: _597  and  _598
REMARK  253  A    between atoms: _601  and  _603
REMARK  254  A    between atoms: _603  and  _604
REMARK  255  A    between atoms: _603  and  _606
REMARK  256  A    between atoms: _609  and  _611
REMARK  257  A    between atoms: _611  and  _612
REMARK  258  A    between atoms: _611  and  _614
REMARK  259  A    between atoms: _614  and  _615
REMARK  260  A    between atoms: _615  and  _616
REMARK  261  A    between atoms: _616  and  _617
REMARK  262  A    between atoms: _617  and  _618
REMARK                            x       y       z     vdW  Elec       q    Type
REMARK                         _______ _______ _______ _____ _____    ______ ____
ROOT
ATOM      1  CA  ASN A   7      65.295  28.191  81.954  0.00  0.00    +0.158 C 
ENDROOT
BRANCH   1   3
ATOM      2  C   CYS A   6      65.095  27.319  79.698  0.00  0.00    +0.242 C 
ATOM      3  N   ASN A   7      64.585  27.470  80.913  0.00  0.00    -0.297 N 
ATOM      4  H   ASN A   7      63.653  27.061  81.125  0.00  0.00    +0.150 HD
ATOM      5  O   CYS A   6      66.267  27.565  79.421  0.00  0.00    -0.273 OA
BRANCH   2   6
ATOM      6  CA  CYS A   6      64.136  26.831  78.647  0.00  0.00    +0.160 C 
BRANCH   6   8
ATOM      7  C   TYR A   5      63.086  28.319  77.008  0.00  0.00    +0.241 C 
ATOM      8  N   CYS A   6      64.181  27.774  77.539  0.00  0.00    -0.296 N 
ATOM      9  H   CYS A   6      65.107  28.034  77.144  0.00  0.00    +0.150 HD
ATOM     10  O   TYR A   5      61.927  27.935  77.241  0.00  0.00    -0.273 OA
BRANCH   7  11
ATOM     11  CA  TYR A   5      63.361  29.443  76.019  0.00  0.00    +0.153 C 
BRANCH  11  13
ATOM     12  C   SER A   4      62.763  28.895  73.745  0.00  0.00    +0.243 C 
ATOM     13  N   TYR A   5      62.448  29.508  74.880  0.00  0.00    -0.297 N 
ATOM     14  H   TYR A   5      61.554  30.033  74.958  0.00  0.00    +0.150 HD
ATOM     15  O   SER A   4      63.741  28.155  73.641  0.00  0.00    -0.273 OA
BRANCH  12  16
ATOM     16  CA  SER A   4      61.864  29.139  72.542  0.00  0.00    +0.178 C 
BRANCH  16  18
ATOM     17  C   LYS A   3      59.503  29.552  72.049  0.00  0.00    +0.241 C 
ATOM     18  N   SER A   4      60.549  29.754  72.840  0.00  0.00    -0.295 N 
ATOM     19  H   SER A   4      60.444  30.354  73.683  0.00  0.00    +0.150 HD
ATOM     20  O   LYS A   3      59.583  28.868  71.038  0.00  0.00    -0.273 OA
BRANCH  17  21
ATOM     21  CA  LYS A   3      58.168  30.196  72.447  0.00  0.00    +0.149 C 
BRANCH  21  24
ATOM     22  C   VAL A   2      56.891  32.083  71.502  0.00  0.00    +0.241 C 
ATOM     23  O   VAL A   2      56.790  32.640  72.595  0.00  0.00    -0.273 OA
ATOM     24  N   LYS A   3      57.549  30.928  71.330  0.00  0.00    -0.297 N 
ATOM     25  H   LYS A   3      57.625  30.534  70.371  0.00  0.00    +0.150 HD
BRANCH  22  26
ATOM     26  CA  VAL A   2      56.182  32.680  70.296  0.00  0.00    +0.148 C 
BRANCH  26  28
ATOM     27  C   ARG A   1      53.759  32.641  70.235  0.00  0.00    +0.238 C 
ATOM     28  N   VAL A   2      54.877  33.095  70.778  0.00  0.00    -0.297 N 
ATOM     29  H   VAL A   2      54.819  33.766  71.570  0.00  0.00    +0.150 HD
ATOM     30  O   ARG A   1      53.757  31.853  69.298  0.00  0.00    -0.274 OA
BRANCH  27  31
ATOM     31  CA  ARG A   1      52.453  33.174  70.844  0.00  0.00    +0.145 C 
BRANCH  31  32
ATOM     32  N   ARG A   1      51.606  33.774  69.819  0.00  0.00    -0.238 NA
ATOM     33  H   ARG A   1      50.794  33.248  69.436  0.00  0.00    +0.142 HD
ENDBRANCH  31  32
BRANCH  31  34
ATOM     34  CB  ARG A   1      51.742  32.071  71.608  0.00  0.00    +0.030 C 
BRANCH  34  35
ATOM     35  CG  ARG A   1      52.473  31.691  72.883  0.00  0.00    +0.045 C 
BRANCH  35  36
ATOM     36  CD  ARG A   1      52.629  30.188  73.009  0.00  0.00    +0.174 C 
BRANCH  36  37
ATOM     37  NE  ARG A   1      52.842  29.740  74.389  0.00  0.00    -0.265 N 
ATOM     38  CZ  ARG A   1      53.849  30.118  75.179  0.00  0.00    +0.342 C 
ATOM     39  NH2 ARG A   1      53.920  29.614  76.407  0.00  0.00    -0.292 N 
ATOM     40 HH21 ARG A   1      54.696  29.894  77.040  0.00  0.00    +0.255 HD
ATOM     41 HH22 ARG A   1      53.200  28.939  76.735  0.00  0.00    +0.255 HD
ATOM     42  NH1 ARG A   1      54.763  31.011  74.771  0.00  0.00    -0.292 N 
ATOM     43 HH11 ARG A   1      55.538  31.289  75.406  0.00  0.00    +0.255 HD
ATOM     44 HH12 ARG A   1      54.696  31.426  73.820  0.00  0.00    +0.255 HD
ATOM     45  HE  ARG A   1      52.150  29.072  74.785  0.00  0.00    +0.259 HD
ENDBRANCH  36  37
ENDBRANCH  35  36
ENDBRANCH  34  35
ENDBRANCH  31  34
ENDBRANCH  27  31
ENDBRANCH  26  28
BRANCH  26  46
ATOM     46  CB  VAL A   2      56.884  33.899  69.666  0.00  0.00    +0.027 C 
ATOM     47  CG2 VAL A   2      58.374  33.724  69.588  0.00  0.00    +0.002 C 
ATOM     48  CG1 VAL A   2      56.303  34.184  68.270  0.00  0.00    +0.002 C 
ENDBRANCH  26  46
ENDBRANCH  22  26
ENDBRANCH  21  24
BRANCH  21  49
ATOM     49  CB  LYS A   3      57.216  29.104  72.941  0.00  0.00    +0.029 C 
BRANCH  49  50
ATOM     50  CG  LYS A   3      57.437  28.663  74.384  0.00  0.00    +0.000 C 
BRANCH  50  51
ATOM     51  CD  LYS A   3      56.378  27.609  74.771  0.00  0.00    -0.024 C 
BRANCH  51  52
ATOM     52  CE  LYS A   3      56.713  26.896  76.084  0.00  0.00    -0.086 C 
BRANCH  52  53
ATOM     53  NZ  LYS A   3      56.654  27.775  77.305  0.00  0.00    +0.380 N 
ATOM     54  HZ1 LYS A   3      56.894  27.213  78.147  0.00  0.00    -0.089 HD
ATOM     55  HZ2 LYS A   3      55.694  28.161  77.407  0.00  0.00    -0.089 HD
ATOM     56  HZ3 LYS A   3      57.334  28.555  77.202  0.00  0.00    -0.089 HD
ENDBRANCH  52  53
ENDBRANCH  51  52
ENDBRANCH  50  51
ENDBRANCH  49  50
ENDBRANCH  21  49
ENDBRANCH  17  21
ENDBRANCH  16  18
BRANCH  16  57
ATOM     57  CB  SER A   4      62.646  29.952  71.514  0.00  0.00    +0.166 C 
BRANCH  57  58
ATOM     58  OG  SER A   4      62.908  31.262  71.966  0.00  0.00    -0.380 OA
ATOM     59  H   SER A   4      62.052  31.727  72.142  0.00  0.00    +0.211 HD
ENDBRANCH  57  58
ENDBRANCH  16  57
ENDBRANCH  12  16
ENDBRANCH  11  13
BRANCH  11  60
ATOM     60  CB  TYR A   5      63.420  30.787  76.754  0.00  0.00    +0.055 C 
BRANCH  60  61
ATOM     61  CG  TYR A   5      64.489  31.707  76.224  0.00  0.00    -0.020 A 
ATOM     62  CD2 TYR A   5      65.440  32.253  77.074  0.00  0.00    -0.001 A 
ATOM     63  CE2 TYR A   5      66.422  33.112  76.590  0.00  0.00    +0.036 A 
ATOM     64  CZ  TYR A   5      66.457  33.420  75.241  0.00  0.00    +0.134 A 
ATOM     65  CE1 TYR A   5      65.525  32.896  74.384  0.00  0.00    +0.036 A 
ATOM     66  CD1 TYR A   5      64.544  32.040  74.874  0.00  0.00    -0.001 A 
BRANCH  64  67
ATOM     67  OH  TYR A   5      67.426  34.280  74.763  0.00  0.00    -0.506 OA
ATOM     68  HH  TYR A   5      67.312  34.394  73.786  0.00  0.00    +0.292 HD
ENDBRANCH  64  67
ENDBRANCH  60  61
ENDBRANCH  11  60
ENDBRANCH   7  11
ENDBRANCH   6   8
BRANCH   6  69
ATOM     69  CB  CYS A   6      64.483  25.403  78.216  0.00  0.00    +0.098 C 
ATOM     70  SG  CYS A   6      64.367  24.236  79.602  0.00  0.00    -0.080 S 
ENDBRANCH   6  69
ENDBRANCH   2   6
ENDBRANCH   1   3
BRANCH   1  71
ATOM     71  C   ASN A   7      65.699  29.582  81.444  0.00  0.00    +0.241 C 
ATOM     72  N   ASP A   8      66.999  29.903  81.509  0.00  0.00    -0.297 N 
ATOM     73  H   ASP A   8      67.668  29.212  81.905  0.00  0.00    +0.150 HD
ATOM     74  O   ASN A   7      64.828  30.348  81.002  0.00  0.00    -0.273 OA
BRANCH  72  75
ATOM     75  CA  ASP A   8      67.508  31.193  81.041  0.00  0.00    +0.160 C 
BRANCH  75  76
ATOM     76  C   ASP A   8      68.123  31.189  79.625  0.00  0.00    +0.241 C 
ATOM     77  O   ASP A   8      68.790  32.139  79.240  0.00  0.00    -0.273 OA
ATOM     78  N   GLN A   9      67.881  30.141  78.855  0.00  0.00    -0.297 N 
ATOM     79  H   GLN A   9      67.255  29.384  79.198  0.00  0.00    +0.150 HD
BRANCH  78  80
ATOM     80  CA  GLN A   9      68.484  30.034  77.525  0.00  0.00    +0.149 C 
BRANCH  80  81
ATOM     81  C   GLN A   9      67.514  29.654  76.422  0.00  0.00    +0.241 C 
ATOM     82  O   GLN A   9      66.511  28.927  76.645  0.00  0.00    -0.273 OA
ATOM     83  N   SER A  10      67.826  30.144  75.227  0.00  0.00    -0.295 N 
ATOM     84  H   SER A  10      68.592  30.843  75.148  0.00  0.00    +0.150 HD
BRANCH  83  85
ATOM     85  CA  SER A  10      67.120  29.725  74.026  0.00  0.00    +0.178 C 
BRANCH  85  86
ATOM     86  C   SER A  10      67.400  28.265  73.764  0.00  0.00    +0.243 C 
ATOM     87  O   SER A  10      68.526  27.817  73.899  0.00  0.00    -0.273 OA
ATOM     88  N   THR A  11      66.368  27.523  73.393  0.00  0.00    -0.295 N 
ATOM     89  H   THR A  11      65.406  27.917  73.428  0.00  0.00    +0.150 HD
BRANCH  88  90
ATOM     90  CA  THR A  11      66.577  26.159  72.937  0.00  0.00    +0.176 C 
BRANCH  90  91
ATOM     91  C   THR A  11      67.058  26.113  71.483  0.00  0.00    +0.243 C 
ATOM     92  O   THR A  11      67.352  25.036  70.963  0.00  0.00    -0.273 OA
ATOM     93  N   GLY A  12      67.141  27.272  70.827  0.00  0.00    -0.295 N 
ATOM     94  H   GLY A  12      66.882  28.152  71.318  0.00  0.00    +0.150 HD
BRANCH  93  95
ATOM     95  CA  GLY A  12      67.588  27.338  69.430  0.00  0.00    +0.176 C 
BRANCH  95  96
ATOM     96  C   GLY A  12      66.570  26.786  68.443  0.00  0.00    +0.243 C 
ATOM     97  N   THR A  13      65.385  26.448  68.965  0.00  0.00    -0.295 N 
ATOM     98  H   THR A  13      65.298  26.463  70.001  0.00  0.00    +0.150 HD
ATOM     99  O   GLY A  12      66.867  26.648  67.253  0.00  0.00    -0.273 OA
BRANCH  97 100
ATOM    100  CA  THR A  13      64.203  26.060  68.198  0.00  0.00    +0.176 C 
BRANCH 100 101
ATOM    101  C   THR A  13      63.130  27.127  68.431  0.00  0.00    +0.243 C 
ATOM    102  O   THR A  13      63.261  27.944  69.332  0.00  0.00    -0.273 OA
ATOM    103  N   LEU A  14      62.065  27.119  67.639  0.00  0.00    -0.298 N 
ATOM    104  H   LEU A  14      61.995  26.407  66.885  0.00  0.00    +0.150 HD
BRANCH 103 105
ATOM    105  CA  LEU A  14      60.987  28.096  67.809  0.00  0.00    +0.137 C 
BRANCH 105 106
ATOM    106  C   LEU A  14      59.614  27.495  67.501  0.00  0.00    +0.227 C 
ATOM    107  O   LEU A  14      59.415  26.893  66.444  0.00  0.00    -0.286 OA
ENDBRANCH 105 106
BRANCH 105 108
ATOM    108  CB  LEU A  14      61.220  29.334  66.930  0.00  0.00    +0.028 C 
BRANCH 108 109
ATOM    109  CG  LEU A  14      60.267  30.530  67.126  0.00  0.00    +0.002 C 
ATOM    110  CD2 LEU A  14      60.411  31.123  68.515  0.00  0.00    +0.000 C 
ATOM    111  CD1 LEU A  14      60.496  31.615  66.081  0.00  0.00    +0.000 C 
ENDBRANCH 108 109
ENDBRANCH 105 108
ENDBRANCH 103 105
ENDBRANCH 100 101
BRANCH 100 112
ATOM    112  CB  THR A  13      63.607  24.761  68.733  0.00  0.00    +0.137 C 
ATOM    113  CG2 THR A  13      64.641  23.658  68.806  0.00  0.00    +0.034 C 
BRANCH 112 114
ATOM    114  OG1 THR A  13      63.108  25.011  70.048  0.00  0.00    -0.382 OA
ATOM    115  HG1 THR A  13      63.850  25.312  70.630  0.00  0.00    +0.210 HD
ENDBRANCH 112 114
ENDBRANCH 100 112
ENDBRANCH  97 100
ENDBRANCH  95  96
ENDBRANCH  93  95
ENDBRANCH  90  91
BRANCH  90 116
ATOM    116  CB  THR A  11      65.308  25.304  73.106  0.00  0.00    +0.137 C 
ATOM    117  CG2 THR A  11      64.870  25.279  74.574  0.00  0.00    +0.034 C 
BRANCH 116 118
ATOM    118  OG1 THR A  11      64.259  25.851  72.302  0.00  0.00    -0.382 OA
ATOM    119  HG1 THR A  11      64.074  26.780  72.590  0.00  0.00    +0.210 HD
ENDBRANCH 116 118
ENDBRANCH  90 116
ENDBRANCH  88  90
ENDBRANCH  85  86
BRANCH  85 120
ATOM    120  CB  SER A  10      67.577  30.525  72.808  0.00  0.00    +0.166 C 
BRANCH 120 121
ATOM    121  OG  SER A  10      66.823  30.147  71.669  0.00  0.00    -0.380 OA
ATOM    122  H   SER A  10      65.864  30.326  71.836  0.00  0.00    +0.211 HD
ENDBRANCH 120 121
ENDBRANCH  85 120
ENDBRANCH  83  85
ENDBRANCH  80  81
BRANCH  80 123
ATOM    123  CB  GLN A   9      69.640  29.033  77.550  0.00  0.00    +0.039 C 
BRANCH 123 124
ATOM    124  CG  GLN A   9      70.643  29.321  78.650  0.00  0.00    +0.087 C 
BRANCH 124 125
ATOM    125  CD  GLN A   9      72.032  28.864  78.299  0.00  0.00    +0.219 C 
ATOM    126  OE1 GLN A   9      72.295  27.668  78.161  0.00  0.00    -0.275 OA
ATOM    127  NE2 GLN A   9      72.942  29.826  78.153  0.00  0.00    -0.329 N 
ATOM    128 HE21 GLN A   9      72.671  30.822  78.280  0.00  0.00    +0.145 HD
ATOM    129 HE22 GLN A   9      73.924  29.581  77.912  0.00  0.00    +0.145 HD
ENDBRANCH 124 125
ENDBRANCH 123 124
ENDBRANCH  80 123
ENDBRANCH  78  80
ENDBRANCH  75  76
BRANCH  75 130
ATOM    130  CB  ASP A   8      68.519  31.778  82.039  0.00  0.00    +0.143 C 
BRANCH 130 131
ATOM    131  CG  ASP A   8      69.615  30.816  82.369  0.00  0.00    +0.367 C 
ATOM    132  OD2 ASP A   8      70.603  31.246  83.003  0.00  0.00    -0.246 OA
ATOM    133  OD1 ASP A   8      69.470  29.627  82.010  0.00  0.00    -0.246 OA
ENDBRANCH 130 131
ENDBRANCH  75 130
ENDBRANCH  72  75
ENDBRANCH   1  71
BRANCH   1 134
ATOM    134  CB  ASN A   7      66.487  27.373  82.453  0.00  0.00    +0.114 C 
BRANCH 134 135
ATOM    135  CG  ASN A   7      66.054  26.050  83.056  0.00  0.00    +0.222 C 
ATOM    136  OD1 ASN A   7      65.065  25.981  83.791  0.00  0.00    -0.275 OA
ATOM    137  ND2 ASN A   7      66.793  24.992  82.751  0.00  0.00    -0.329 N 
ATOM    138 HD21 ASN A   7      66.547  24.058  83.136  0.00  0.00    +0.145 HD
ATOM    139 HD22 ASN A   7      67.618  25.097  82.127  0.00  0.00    +0.145 HD
ENDBRANCH 134 135
ENDBRANCH   1 134
TORSDOF 59
REMARK  Name = ../refined-set-2016/3ozg/3ozg_pocket.pdb
REMARK  262 active torsions:
REMARK  status: ('A' for Active; 'I' for Inactive)
REMARK    1  A    between atoms: _1  and  _3
REMARK    2  A    between atoms: _3  and  _4
REMARK    3  A    between atoms: _3  and  _6
REMARK    4  A    between atoms: _6  and  _7
REMARK    5  A    between atoms: _10  and  _12
REMARK    6  A    between atoms: _12  and  _13
REMARK    7  A    between atoms: _12  and  _15
REMARK    8  A    between atoms: _15  and  _16
REMARK    9  A    between atoms: _19  and  _21
REMARK   10  A    between atoms: _21  and  _22
REMARK   11  A    between atoms: _21  and  _24
REMARK   12  A    between atoms: _24  and  _25
REMARK   13  A    between atoms: _25  and  _26
REMARK   14  A    between atoms: _26  and  _27
REMARK   15  A    between atoms: _27  and  _28
REMARK   16  A    between atoms: _32  and  _34
REMARK   17  A    between atoms: _34  and  _35
REMARK   18  A    between atoms: _37  and  _39
REMARK   19  A    between atoms: _39  and  _40
REMARK   20  A    between atoms: _39  and  _42
REMARK   21  A    between atoms: _42  and  _43
REMARK   22  A    between atoms: _45  and  _47
REMARK   23  A    between atoms: _47  and  _48
REMARK   24  A    between atoms: _47  and  _50
REMARK   25  A    between atoms: _50  and  _51
REMARK   26  A    between atoms: _51  and  _52
REMARK   27  A    between atoms: _52  and  _53
REMARK   28  A    between atoms: _62  and  _64
REMARK   29  A    between atoms: _64  and  _65
REMARK   30  A    between atoms: _64  and  _67
REMARK   31  A    between atoms: _67  and  _68
REMARK   32  A    between atoms: _68  and  _69
REMARK   33  A    between atoms: _69  and  _70
REMARK   34  A    between atoms: _79  and  _81
REMARK   35  A    between atoms: _81  and  _82
REMARK   36  A    between atoms: _81  and  _84
REMARK   37  A    between atoms: _87  and  _89
REMARK   38  A    between atoms: _89  and  _90
REMARK   39  A    between atoms: _89  and  _92
REMARK   40  A    between atoms: _92  and  _93
REMARK   41  A    between atoms: _93  and  _94
REMARK   42  A    between atoms: _94  and  _95
REMARK   43  A    between atoms: _95  and  _96
REMARK   44  A    between atoms: _100  and  _102
REMARK   45  A    between atoms: _102  and  _103
REMARK   46  A    between atoms: _102  and  _105
REMARK   47  A    between atoms: _105  and  _106
REMARK   48  A    between atoms: _108  and  _110
REMARK   49  A    between atoms: _110  and  _111
REMARK   50  A    between atoms: _110  and  _113
REMARK   51  A    between atoms: _113  and  _114
REMARK   52  A    between atoms: _119  and  _120
REMARK   53  A    between atoms: _122  and  _124
REMARK   54  A    between atoms: _124  and  _125
REMARK   55  A    between atoms: _124  and  _127
REMARK   56  A    between atoms: _129  and  _131
REMARK   57  A    between atoms: _131  and  _132
REMARK   58  A    between atoms: _131  and  _134
REMARK   59  A    between atoms: _134  and  _135
REMARK   60  A    between atoms: _140  and  _142
REMARK   61  A    between atoms: _142  and  _143
REMARK   62  A    between atoms: _142  and  _145
REMARK   63  A    between atoms: _145  and  _146
REMARK   64  A    between atoms: _149  and  _151
REMARK   65  A    between atoms: _151  and  _152
REMARK   66  A    between atoms: _151  and  _154
REMARK   67  A    between atoms: _154  and  _155
REMARK   68  A    between atoms: _155  and  _156
REMARK   69  A    between atoms: _161  and  _163
REMARK   70  A    between atoms: _163  and  _164
REMARK   71  A    between atoms: _163  and  _166
REMARK   72  A    between atoms: _166  and  _167
REMARK   73  A    between atoms: _169  and  _171
REMARK   74  A    between atoms: _171  and  _172
REMARK   75  A    between atoms: _171  and  _174
REMARK   76  A    between atoms: _174  and  _175
REMARK   77  A    between atoms: _178  and  _180
REMARK   78  A    between atoms: _180  and  _181
REMARK   79  A    between atoms: _183  and  _185
REMARK   80  A    between atoms: _185  and  _186
REMARK   81  A    between atoms: _185  and  _188
REMARK   82  A    between atoms: _188  and  _189
REMARK   83  A    between atoms: _192  and  _194
REMARK   84  A    between atoms: _194  and  _195
REMARK   85  A    between atoms: _194  and  _197
REMARK   86  A    between atoms: _197  and  _198
REMARK   87  A    between atoms: _201  and  _203
REMARK   88  A    between atoms: _203  and  _204
REMARK   89  A    between atoms: _203  and  _206
REMARK   90  A    between atoms: _209  and  _211
REMARK   91  A    between atoms: _211  and  _212
REMARK   92  A    between atoms: _211  and  _214
REMARK   93  A    between atoms: _214  and  _215
REMARK   94  A    between atoms: _215  and  _216
REMARK   95  A    between atoms: _219  and  _221
REMARK   96  A    between atoms: _221  and  _222
REMARK   97  A    between atoms: _221  and  _224
REMARK   98  A    between atoms: _224  and  _225
REMARK   99  A    between atoms: _228  and  _230
REMARK  100  A    between atoms: _230  and  _231
REMARK  101  A    between atoms: _230  and  _233
REMARK  102  A    between atoms: _233  and  _234
REMARK  103  A    between atoms: _237  and  _239
REMARK  104  A    between atoms: _239  and  _240
REMARK  105  A    between atoms: _239  and  _242
REMARK  106  A    between atoms: _242  and  _243
REMARK  107  A    between atoms: _246  and  _248
REMARK  108  A    between atoms: _248  and  _249
REMARK  109  A    between atoms: _248  and  _251
REMARK  110  A    between atoms: _251  and  _252
REMARK  111  A    between atoms: _255  and  _257
REMARK  112  A    between atoms: _257  and  _258
REMARK  113  A    between atoms: _257  and  _260
REMARK  114  A    between atoms: _260  and  _261
REMARK  115  A    between atoms: _264  and  _266
REMARK  116  A    between atoms: _266  and  _267
REMARK  117  A    between atoms: _269  and  _271
REMARK  118  A    between atoms: _271  and  _272
REMARK  119  A    between atoms: _271  and  _274
REMARK  120  A    between atoms: _274  and  _275
REMARK  121  A    between atoms: _275  and  _276
REMARK  122  A    between atoms: _276  and  _277
REMARK  123  A    between atoms: _277  and  _278
REMARK  124  A    between atoms: _282  and  _284
REMARK  125  A    between atoms: _284  and  _285
REMARK  126  A    between atoms: _284  and  _287
REMARK  127  A    between atoms: _287  and  _288
REMARK  128  A    between atoms: _291  and  _293
REMARK  129  A    between atoms: _293  and  _294
REMARK  130  A    between atoms: _293  and  _296
REMARK  131  A    between atoms: _296  and  _297
REMARK  132  A    between atoms: _300  and  _302
REMARK  133  A    between atoms: _302  and  _303
REMARK  134  A    between atoms: _302  and  _305
REMARK  135  A    between atoms: _308  and  _310
REMARK  136  A    between atoms: _310  and  _311
REMARK  137  A    between atoms: _310  and  _313
REMARK  138  A    between atoms: _313  and  _314
REMARK  139  A    between atoms: _314  and  _315
REMARK  140  A    between atoms: _315  and  _316
REMARK  141  A    between atoms: _316  and  _317
REMARK  142  A    between atoms: _321  and  _323
REMARK  143  A    between atoms: _323  and  _324
REMARK  144  A    between atoms: _323  and  _326
REMARK  145  A    between atoms: _326  and  _327
REMARK  146  A    between atoms: _333  and  _335
REMARK  147  A    between atoms: _335  and  _336
REMARK  148  A    between atoms: _335  and  _338
REMARK  149  A    between atoms: _340  and  _342
REMARK  150  A    between atoms: _342  and  _343
REMARK  151  A    between atoms: _342  and  _345
REMARK  152  A    between atoms: _345  and  _346
REMARK  153  A    between atoms: _352  and  _354
REMARK  154  A    between atoms: _354  and  _355
REMARK  155  A    between atoms: _354  and  _357
REMARK  156  A    between atoms: _357  and  _358
REMARK  157  A    between atoms: _358  and  _359
REMARK  158  A    between atoms: _359  and  _360
REMARK  159  A    between atoms: _360  and  _361
REMARK  160  A    between atoms: _365  and  _367
REMARK  161  A    between atoms: _367  and  _368
REMARK  162  A    between atoms: _367  and  _370
REMARK  163  A    between atoms: _370  and  _371
REMARK  164  A    between atoms: _374  and  _376
REMARK  165  A    between atoms: _376  and  _377
REMARK  166  A    between atoms: _376  and  _379
REMARK  167  A    between atoms: _379  and  _380
REMARK  168  A    between atoms: _383  and  _385
REMARK  169  A    between atoms: _385  and  _386
REMARK  170  A    between atoms: _385  and  _388
REMARK  171  A    between atoms: _388  and  _389
REMARK  172  A    between atoms: _399  and  _401
REMARK  173  A    between atoms: _401  and  _402
REMARK  174  A    between atoms: _401  and  _404
REMARK  175  A    between atoms: _404  and  _405
REMARK  176  A    between atoms: _410  and  _412
REMARK  177  A    between atoms: _412  and  _413
REMARK  178  A    between atoms: _412  and  _415
REMARK  179  A    between atoms: _415  and  _416
REMARK  180  A    between atoms: _422  and  _424
REMARK  181  A    between atoms: _424  and  _425
REMARK  182  A    between atoms: _424  and  _427
REMARK  183  A    between atoms: _427  and  _428
REMARK  184  A    between atoms: _432  and  _433
REMARK  185  A    between atoms: _438  and  _440
REMARK  186  A    between atoms: _440  and  _441
REMARK  187  A    between atoms: _440  and  _443
REMARK  188  A    between atoms: _443  and  _444
REMARK  189  A    between atoms: _447  and  _449
REMARK  190  A    between atoms: _449  and  _450
REMARK  191  A    between atoms: _449  and  _452
REMARK  192  A    between atoms: _452  and  _453
REMARK  193  A    between atoms: _458  and  _460
REMARK  194  A    between atoms: _460  and  _461
REMARK  195  A    between atoms: _460  and  _463
REMARK  196  A    between atoms: _463  and  _464
REMARK  197  A    between atoms: _470  and  _472
REMARK  198  A    between atoms: _472  and  _473
REMARK  199  A    between atoms: _472  and  _475
REMARK  200  A    between atoms: _478  and  _480
REMARK  201  A    between atoms: _480  and  _481
REMARK  202  A    between atoms: _480  and  _483
REMARK  203  A    between atoms: _486  and  _488
REMARK  204  A    between atoms: _488  and  _489
REMARK  205  A    between atoms: _491  and  _493
REMARK  206  A    between atoms: _493  and  _494
REMARK  207  A    between atoms: _493  and  _496
REMARK  208  A    between atoms: _496  and  _497
REMARK  209  A    between atoms: _499  and  _501
REMARK  210  A    between atoms: _501  and  _502
REMARK  211  A    between atoms: _501  and  _504
REMARK  212  A    between atoms: _504  and  _505
REMARK  213  A    between atoms: _508  and  _510
REMARK  214  A    between atoms: _510  and  _511
REMARK  215  A    between atoms: _510  and  _513
REMARK  216  A    between atoms: _513  and  _514
REMARK  217  A    between atoms: _514  and  _515
REMARK  218  A    between atoms: _515  and  MG_622
REMARK  219  A    between atoms: _517  and  _519
REMARK  220  A    between atoms: _519  and  _520
REMARK  221  A    between atoms: _519  and  _522
REMARK  222  A    between atoms: _522  and  _523
REMARK  223  A    between atoms: _528  and  _529
REMARK  224  A    between atoms: _531  and  _533
REMARK  225  A    between atoms: _533  and  _534
REMARK  226  A    between atoms: _533  and  _536
REMARK  227  A    between atoms: _536  and  _537
REMARK  228  A    between atoms: _542  and  _544
REMARK  229  A    between atoms: _544  and  _545
REMARK  230  A    between atoms: _544  and  _547
REMARK  231  A    between atoms: _547  and  _548
REMARK  232  A    between atoms: _548  and  _549
REMARK  233  A    between atoms: _552  and  _554
REMARK  234  A    between atoms: _554  and  _555
REMARK  235  A    between atoms: _554  and  _557
REMARK  236  A    between atoms: _557  and  _558
REMARK  237  A    between atoms: _561  and  _563
REMARK  238  A    between atoms: _563  and  _564
REMARK  239  A    between atoms: _563  and  _566
REMARK  240  A    between atoms: _566  and  _567
REMARK  241  A    between atoms: _567  and  _568
REMARK  242  A    between atoms: _568  and  _569
REMARK  243  A    between atoms: _578  and  _580
REMARK  244  A    between atoms: _580  and  _581
REMARK  245  A    between atoms: _580  and  _583
REMARK  246  A    between atoms: _585  and  _587
REMARK  247  A    between atoms: _587  and  _588
REMARK  248  A    between atoms: _587  and  _590
REMARK  249  A    between atoms: _592  and  _594
REMARK  250  A    between atoms: _594  and  _595
REMARK  251  A    between atoms: _594  and  _597
REMARK  252  A    between atoms: _597  and  _598
REMARK  253  A    between atoms: _601  and  _603
REMARK  254  A    between atoms: _603  and  _604
REMARK  255  A    between atoms: _603  and  _606
REMARK  256  A    between atoms: _609  and  _611
REMARK  257  A    between atoms: _611  and  _612
REMARK  258  A    between atoms: _611  and  _614
REMARK  259  A    between atoms: _614  and  _615
REMARK  260  A    between atoms: _615  and  _616
REMARK  261  A    between atoms: _616  and  _617
REMARK  262  A    between atoms: _617  and  _618
REMARK                            x       y       z     vdW  Elec       q    Type
REMARK                         _______ _______ _______ _____ _____    ______ ____
ROOT
ATOM      1  CA  GLY A   8      67.787  37.702  67.964  0.00  0.00    +0.176 C 
ENDROOT
BRANCH   1   3
ATOM      2  C   THR A   7      69.589  36.679  69.273  0.00  0.00    +0.243 C 
ATOM      3  N   GLY A   8      68.432  37.327  69.238  0.00  0.00    -0.295 N 
ATOM      4  H   GLY A   8      67.966  37.578  70.133  0.00  0.00    +0.150 HD
ATOM      5  O   THR A   7      70.259  36.502  68.267  0.00  0.00    -0.273 OA
BRANCH   2   6
ATOM      6  CA  THR A   7      70.041  36.128  70.632  0.00  0.00    +0.176 C 
BRANCH   6   8
ATOM      7  C   ASP A   6      69.558  38.020  72.145  0.00  0.00    +0.241 C 
ATOM      8  N   THR A   7      69.327  36.767  71.749  0.00  0.00    -0.295 N 
ATOM      9  H   THR A   7      68.606  36.214  72.255  0.00  0.00    +0.150 HD
ATOM     10  O   ASP A   6      70.497  38.702  71.734  0.00  0.00    -0.273 OA
BRANCH   7  11
ATOM     11  CA  ASP A   6      68.571  38.638  73.147  0.00  0.00    +0.160 C 
BRANCH  11  14
ATOM     12  C   ILE A   5      67.163  40.498  72.557  0.00  0.00    +0.241 C 
ATOM     13  O   ILE A   5      67.837  41.283  73.221  0.00  0.00    -0.273 OA
ATOM     14  N   ASP A   6      67.484  39.223  72.404  0.00  0.00    -0.297 N 
ATOM     15  H   ASP A   6      66.944  38.635  71.738  0.00  0.00    +0.150 HD
BRANCH  12  16
ATOM     16  CA  ILE A   5      65.874  40.938  71.860  0.00  0.00    +0.149 C 
BRANCH  16  18
ATOM     17  C   ILE A   4      63.886  40.978  73.261  0.00  0.00    +0.241 C 
ATOM     18  N   ILE A   5      65.018  41.548  72.843  0.00  0.00    -0.297 N 
ATOM     19  H   ILE A   5      65.292  42.468  73.243  0.00  0.00    +0.150 HD
ATOM     20  O   ILE A   4      63.419  39.957  72.768  0.00  0.00    -0.273 OA
BRANCH  17  21
ATOM     21  CA  ILE A   4      63.213  41.657  74.451  0.00  0.00    +0.149 C 
BRANCH  21  24
ATOM     22  C   ASP A   3      61.039  42.652  74.920  0.00  0.00    +0.241 C 
ATOM     23  O   ASP A   3      61.556  43.701  75.321  0.00  0.00    -0.273 OA
ATOM     24  N   ILE A   4      61.743  41.645  74.416  0.00  0.00    -0.297 N 
ATOM     25  H   ILE A   4      61.247  40.836  73.990  0.00  0.00    +0.150 HD
BRANCH  22  26
ATOM     26  CA  ASP A   3      59.518  42.472  74.949  0.00  0.00    +0.160 C 
BRANCH  26  28
ATOM     27  C   GLU A   2      59.157  42.760  72.564  0.00  0.00    +0.241 C 
ATOM     28  N   ASP A   3      59.015  42.024  73.655  0.00  0.00    -0.297 N 
ATOM     29  H   ASP A   3      58.533  41.105  73.588  0.00  0.00    +0.150 HD
ATOM     30  O   GLU A   2      59.716  43.877  72.568  0.00  0.00    -0.273 OA
BRANCH  27  31
ATOM     31  CA  GLU A   2      58.604  42.149  71.266  0.00  0.00    +0.149 C 
BRANCH  31  34
ATOM     32  C   VAL A   1      56.541  43.044  70.277  0.00  0.00    +0.238 C 
ATOM     33  O   VAL A   1      55.821  42.080  70.596  0.00  0.00    -0.274 OA
ATOM     34  N   GLU A   2      57.833  43.143  70.568  0.00  0.00    -0.297 N 
ATOM     35  H   GLU A   2      58.327  44.008  70.267  0.00  0.00    +0.150 HD
BRANCH  32  36
ATOM     36  CA  VAL A   1      56.004  44.226  69.469  0.00  0.00    +0.145 C 
BRANCH  36  37
ATOM     37  CB  VAL A   1      54.810  44.869  70.158  0.00  0.00    +0.025 C 
ATOM     38  CG2 VAL A   1      55.166  45.259  71.584  0.00  0.00    +0.002 C 
ATOM     39  CG1 VAL A   1      54.368  46.079  69.385  0.00  0.00    +0.002 C 
ENDBRANCH  36  37
BRANCH  36  40
ATOM     40  N   VAL A   1      55.678  43.798  68.114  0.00  0.00    -0.238 NA
ATOM     41  H   VAL A   1      54.900  43.121  67.978  0.00  0.00    +0.142 HD
ENDBRANCH  36  40
ENDBRANCH  32  36
ENDBRANCH  31  34
BRANCH  31  42
ATOM     42  CB  GLU A   2      59.760  41.715  70.364  0.00  0.00    +0.041 C 
BRANCH  42  43
ATOM     43  CG  GLU A   2      60.891  40.958  71.078  0.00  0.00    +0.116 C 
BRANCH  43  44
ATOM     44  CD  GLU A   2      61.107  39.539  70.564  0.00  0.00    +0.365 C 
ATOM     45  OE2 GLU A   2      62.295  39.090  70.508  0.00  0.00    -0.246 OA
ATOM     46  OE1 GLU A   2      60.105  38.869  70.243  0.00  0.00    -0.246 OA
ENDBRANCH  43  44
ENDBRANCH  42  43
ENDBRANCH  31  42
ENDBRANCH  27  31
ENDBRANCH  26  28
BRANCH  26  47
ATOM     47  CB  ASP A   3      59.119  41.506  76.074  0.00  0.00    +0.143 C 
BRANCH  47  48
ATOM     48  CG  ASP A   3      59.360  40.023  75.724  0.00  0.00    +0.367 C 
ATOM     49  OD2 ASP A   3      59.240  39.186  76.634  0.00  0.00    -0.246 OA
ATOM     50  OD1 ASP A   3      59.629  39.668  74.560  0.00  0.00    -0.246 OA
ENDBRANCH  47  48
ENDBRANCH  26  47
ENDBRANCH  22  26
ENDBRANCH  21  24
BRANCH  21  51
ATOM     51  CB  ILE A   4      63.761  41.061  75.783  0.00  0.00    +0.027 C 
ATOM     52  CG2 ILE A   4      63.416  39.571  75.936  0.00  0.00    +0.002 C 
BRANCH  51  53
ATOM     53  CG1 ILE A   4      65.279  41.296  75.918  0.00  0.00    +0.002 C 
ATOM     54  CD1 ILE A   4      65.797  40.983  77.341  0.00  0.00    +0.000 C 
ENDBRANCH  51  53
ENDBRANCH  21  51
ENDBRANCH  17  21
ENDBRANCH  16  18
BRANCH  16  55
ATOM     55  CB  ILE A   5      66.155  41.892  70.662  0.00  0.00    +0.027 C 
ATOM     56  CG2 ILE A   5      67.231  41.321  69.776  0.00  0.00    +0.002 C 
BRANCH  55  57
ATOM     57  CG1 ILE A   5      64.858  42.144  69.865  0.00  0.00    +0.002 C 
ATOM     58  CD1 ILE A   5      64.938  43.311  68.785  0.00  0.00    +0.000 C 
ENDBRANCH  55  57
ENDBRANCH  16  55
ENDBRANCH  12  16
ENDBRANCH  11  14
BRANCH  11  59
ATOM     59  CB  ASP A   6      68.017  37.647  74.175  0.00  0.00    +0.143 C 
BRANCH  59  60
ATOM     60  CG  ASP A   6      68.986  37.350  75.294  0.00  0.00    +0.367 C 
ATOM     61  OD2 ASP A   6      68.539  37.267  76.454  0.00  0.00    -0.246 OA
ATOM     62  OD1 ASP A   6      70.187  37.167  75.021  0.00  0.00    -0.246 OA
ENDBRANCH  59  60
ENDBRANCH  11  59
ENDBRANCH   7  11
ENDBRANCH   6   8
BRANCH   6  63
ATOM     63  CB  THR A   7      69.813  34.590  70.619  0.00  0.00    +0.137 C 
ATOM     64  CG2 THR A   7      70.374  33.926  71.903  0.00  0.00    +0.034 C 
BRANCH  63  65
ATOM     65  OG1 THR A   7      68.405  34.300  70.522  0.00  0.00    -0.382 OA
ATOM     66  HG1 THR A   7      67.934  34.693  71.299  0.00  0.00    +0.210 HD
ENDBRANCH  63  65
ENDBRANCH   6  63
ENDBRANCH   2   6
ENDBRANCH   1   3
BRANCH   1  67
ATOM     67  C   GLY A   8      67.250  36.528  67.153  0.00  0.00    +0.243 C 
ATOM     68  N   LYS A   9      67.202  35.334  67.735  0.00  0.00    -0.297 N 
ATOM     69  H   LYS A   9      67.486  35.229  68.730  0.00  0.00    +0.150 HD
ATOM     70  O   GLY A   8      66.897  36.689  65.990  0.00  0.00    -0.273 OA
BRANCH  68  71
ATOM     71  CA  LYS A   9      66.751  34.169  66.978  0.00  0.00    +0.149 C 
BRANCH  71  72
ATOM     72  C   LYS A   9      65.235  34.239  66.738  0.00  0.00    +0.241 C 
ATOM     73  N   THR A  10      64.486  34.575  67.784  0.00  0.00    -0.295 N 
ATOM     74  H   THR A  10      64.939  34.773  68.699  0.00  0.00    +0.150 HD
ATOM     75  O   LYS A   9      64.757  34.018  65.616  0.00  0.00    -0.273 OA
BRANCH  73  76
ATOM     76  CA  THR A  10      63.022  34.670  67.660  0.00  0.00    +0.176 C 
BRANCH  76  77
ATOM     77  C   THR A  10      62.610  35.497  66.444  0.00  0.00    +0.243 C 
ATOM     78  N   LEU A  11      63.201  36.677  66.310  0.00  0.00    -0.297 N 
ATOM     79  H   LEU A  11      63.980  36.928  66.952  0.00  0.00    +0.150 HD
ATOM     80  O   THR A  10      61.800  35.065  65.645  0.00  0.00    -0.273 OA
BRANCH  78  81
ATOM     81  CA  LEU A  11      62.792  37.627  65.294  0.00  0.00    +0.149 C 
BRANCH  81  82
ATOM     82  C   LEU A  11      63.339  37.327  63.902  0.00  0.00    +0.241 C 
ATOM     83  N   VAL A  12      64.614  36.944  63.773  0.00  0.00    -0.297 N 
ATOM     84  H   VAL A  12      65.249  36.921  64.596  0.00  0.00    +0.150 HD
ATOM     85  O   LEU A  11      62.594  37.459  62.933  0.00  0.00    -0.273 OA
BRANCH  83  86
ATOM     86  CA  VAL A  12      65.093  36.558  62.443  0.00  0.00    +0.149 C 
BRANCH  86  87
ATOM     87  C   VAL A  12      64.179  35.457  61.915  0.00  0.00    +0.241 C 
ATOM     88  N   LYS A  13      63.910  34.470  62.761  0.00  0.00    -0.297 N 
ATOM     89  H   LYS A  13      64.264  34.524  63.737  0.00  0.00    +0.150 HD
ATOM     90  O   VAL A  12      63.697  35.524  60.789  0.00  0.00    -0.273 OA
BRANCH  88  91
ATOM     91  CA  LYS A  13      63.130  33.316  62.347  0.00  0.00    +0.149 C 
BRANCH  91  92
ATOM     92  C   LYS A  13      61.684  33.732  62.098  0.00  0.00    +0.241 C 
ATOM     93  N   PHE A  14      61.134  34.529  62.999  0.00  0.00    -0.298 N 
ATOM     94  H   PHE A  14      61.675  34.853  63.826  0.00  0.00    +0.150 HD
ATOM     95  O   LYS A  13      61.077  33.355  61.092  0.00  0.00    -0.273 OA
BRANCH  93  96
ATOM     96  CA  PHE A  14      59.756  34.939  62.802  0.00  0.00    +0.141 C 
BRANCH  96  97
ATOM     97  C   PHE A  14      59.572  35.820  61.559  0.00  0.00    +0.227 C 
ATOM     98  O   PHE A  14      58.597  35.641  60.824  0.00  0.00    -0.286 OA
ENDBRANCH  96  97
BRANCH  96  99
ATOM     99  CB  PHE A  14      59.169  35.607  64.047  0.00  0.00    +0.054 C 
BRANCH  99 100
ATOM    100  CG  PHE A  14      57.727  35.948  63.899  0.00  0.00    -0.020 A 
ATOM    101  CD2 PHE A  14      57.303  37.265  63.988  0.00  0.00    -0.004 A 
ATOM    102  CE2 PHE A  14      55.960  37.589  63.839  0.00  0.00    -0.000 A 
ATOM    103  CZ  PHE A  14      55.036  36.594  63.586  0.00  0.00    -0.000 A 
ATOM    104  CE1 PHE A  14      55.453  35.263  63.472  0.00  0.00    -0.000 A 
ATOM    105  CD1 PHE A  14      56.795  34.956  63.629  0.00  0.00    -0.004 A 
ENDBRANCH  99 100
ENDBRANCH  96  99
ENDBRANCH  93  96
ENDBRANCH  91  92
BRANCH  91 106
ATOM    106  CB  LYS A  13      63.201  32.203  63.388  0.00  0.00    +0.029 C 
BRANCH 106 107
ATOM    107  CG  LYS A  13      64.558  31.523  63.480  0.00  0.00    +0.000 C 
BRANCH 107 108
ATOM    108  CD  LYS A  13      64.607  30.599  64.686  0.00  0.00    -0.024 C 
BRANCH 108 109
ATOM    109  CE  LYS A  13      66.052  30.195  64.988  0.00  0.00    -0.086 C 
BRANCH 109 110
ATOM    110  NZ  LYS A  13      66.123  29.303  66.188  0.00  0.00    +0.380 N 
ATOM    111  HZ1 LYS A  13      65.738  29.804  67.014  0.00  0.00    -0.089 HD
ATOM    112  HZ2 LYS A  13      67.114  29.045  66.369  0.00  0.00    -0.089 HD
ATOM    113  HZ3 LYS A  13      65.566  28.442  66.012  0.00  0.00    -0.089 HD
ENDBRANCH 109 110
ENDBRANCH 108 109
ENDBRANCH 107 108
ENDBRANCH 106 107
ENDBRANCH  91 106
ENDBRANCH  88  91
ENDBRANCH  86  87
BRANCH  86 114
ATOM    114  CB  VAL A  12      66.616  36.144  62.369  0.00  0.00    +0.027 C 
ATOM    115  CG2 VAL A  12      66.895  34.874  63.134  0.00  0.00    +0.002 C 
ATOM    116  CG1 VAL A  12      67.023  35.933  60.923  0.00  0.00    +0.002 C 
ENDBRANCH  86 114
ENDBRANCH  83  86
ENDBRANCH  81  82
BRANCH  81 117
ATOM    117  CB  LEU A  11      63.112  39.060  65.735  0.00  0.00    +0.029 C 
BRANCH 117 118
ATOM    118  CG  LEU A  11      62.216  39.709  66.798  0.00  0.00    +0.002 C 
ATOM    119  CD2 LEU A  11      62.798  41.051  67.164  0.00  0.00    +0.000 C 
ATOM    120  CD1 LEU A  11      60.741  39.867  66.312  0.00  0.00    +0.000 C 
ENDBRANCH 117 118
ENDBRANCH  81 117
ENDBRANCH  78  81
ENDBRANCH  76  77
BRANCH  76 121
ATOM    121  CB  THR A  10      62.400  35.273  68.919  0.00  0.00    +0.137 C 
ATOM    122  CG2 THR A  10      60.903  35.452  68.738  0.00  0.00    +0.034 C 
BRANCH 121 123
ATOM    123  OG1 THR A  10      62.664  34.403  70.030  0.00  0.00    -0.382 OA
ATOM    124  HG1 THR A  10      63.642  34.311  70.150  0.00  0.00    +0.210 HD
ENDBRANCH 121 123
ENDBRANCH  76 121
ENDBRANCH  73  76
ENDBRANCH  71  72
BRANCH  71 125
ATOM    125  CB  LYS A   9      67.092  32.870  67.705  0.00  0.00    +0.029 C 
BRANCH 125 126
ATOM    126  CG  LYS A   9      68.550  32.569  67.835  0.00  0.00    +0.000 C 
BRANCH 126 127
ATOM    127  CD  LYS A   9      68.747  31.425  68.845  0.00  0.00    -0.024 C 
BRANCH 127 128
ATOM    128  CE  LYS A   9      70.181  30.901  68.861  0.00  0.00    -0.086 C 
BRANCH 128 129
ATOM    129  NZ  LYS A   9      70.540  30.593  67.482  0.00  0.00    +0.380 N 
ATOM    130  HZ1 LYS A   9      71.515  30.232  67.451  0.00  0.00    -0.089 HD
ATOM    131  HZ2 LYS A   9      69.890  29.872  67.108  0.00  0.00    -0.089 HD
ATOM    132  HZ3 LYS A   9      70.471  31.456  66.906  0.00  0.00    -0.089 HD
ENDBRANCH 128 129
ENDBRANCH 127 128
ENDBRANCH 126 127
ENDBRANCH 125 126
ENDBRANCH  71 125
ENDBRANCH  68  71
ENDBRANCH   1  67
TORSDOF 59
REMARK  Name = ../refined-set-2016/3ozg/3ozg_pocket.pdb
REMARK  262 active torsions:
REMARK  status: ('A' for Active; 'I' for Inactive)
REMARK    1  A    between atoms: _1  and  _3
REMARK    2  A    between atoms: _3  and  _4
REMARK    3  A    between atoms: _3  and  _6
REMARK    4  A    between atoms: _6  and  _7
REMARK    5  A    between atoms: _10  and  _12
REMARK    6  A    between atoms: _12  and  _13
REMARK    7  A    between atoms: _12  and  _15
REMARK    8  A    between atoms: _15  and  _16
REMARK    9  A    between atoms: _19  and  _21
REMARK   10  A    between atoms: _21  and  _22
REMARK   11  A    between atoms: _21  and  _24
REMARK   12  A    between atoms: _24  and  _25
REMARK   13  A    between atoms: _25  and  _26
REMARK   14  A    between atoms: _26  and  _27
REMARK   15  A    between atoms: _27  and  _28
REMARK   16  A    between atoms: _32  and  _34
REMARK   17  A    between atoms: _34  and  _35
REMARK   18  A    between atoms: _37  and  _39
REMARK   19  A    between atoms: _39  and  _40
REMARK   20  A    between atoms: _39  and  _42
REMARK   21  A    between atoms: _42  and  _43
REMARK   22  A    between atoms: _45  and  _47
REMARK   23  A    between atoms: _47  and  _48
REMARK   24  A    between atoms: _47  and  _50
REMARK   25  A    between atoms: _50  and  _51
REMARK   26  A    between atoms: _51  and  _52
REMARK   27  A    between atoms: _52  and  _53
REMARK   28  A    between atoms: _62  and  _64
REMARK   29  A    between atoms: _64  and  _65
REMARK   30  A    between atoms: _64  and  _67
REMARK   31  A    between atoms: _67  and  _68
REMARK   32  A    between atoms: _68  and  _69
REMARK   33  A    between atoms: _69  and  _70
REMARK   34  A    between atoms: _79  and  _81
REMARK   35  A    between atoms: _81  and  _82
REMARK   36  A    between atoms: _81  and  _84
REMARK   37  A    between atoms: _87  and  _89
REMARK   38  A    between atoms: _89  and  _90
REMARK   39  A    between atoms: _89  and  _92
REMARK   40  A    between atoms: _92  and  _93
REMARK   41  A    between atoms: _93  and  _94
REMARK   42  A    between atoms: _94  and  _95
REMARK   43  A    between atoms: _95  and  _96
REMARK   44  A    between atoms: _100  and  _102
REMARK   45  A    between atoms: _102  and  _103
REMARK   46  A    between atoms: _102  and  _105
REMARK   47  A    between atoms: _105  and  _106
REMARK   48  A    between atoms: _108  and  _110
REMARK   49  A    between atoms: _110  and  _111
REMARK   50  A    between atoms: _110  and  _113
REMARK   51  A    between atoms: _113  and  _114
REMARK   52  A    between atoms: _119  and  _120
REMARK   53  A    between atoms: _122  and  _124
REMARK   54  A    between atoms: _124  and  _125
REMARK   55  A    between atoms: _124  and  _127
REMARK   56  A    between atoms: _129  and  _131
REMARK   57  A    between atoms: _131  and  _132
REMARK   58  A    between atoms: _131  and  _134
REMARK   59  A    between atoms: _134  and  _135
REMARK   60  A    between atoms: _140  and  _142
REMARK   61  A    between atoms: _142  and  _143
REMARK   62  A    between atoms: _142  and  _145
REMARK   63  A    between atoms: _145  and  _146
REMARK   64  A    between atoms: _149  and  _151
REMARK   65  A    between atoms: _151  and  _152
REMARK   66  A    between atoms: _151  and  _154
REMARK   67  A    between atoms: _154  and  _155
REMARK   68  A    between atoms: _155  and  _156
REMARK   69  A    between atoms: _161  and  _163
REMARK   70  A    between atoms: _163  and  _164
REMARK   71  A    between atoms: _163  and  _166
REMARK   72  A    between atoms: _166  and  _167
REMARK   73  A    between atoms: _169  and  _171
REMARK   74  A    between atoms: _171  and  _172
REMARK   75  A    between atoms: _171  and  _174
REMARK   76  A    between atoms: _174  and  _175
REMARK   77  A    between atoms: _178  and  _180
REMARK   78  A    between atoms: _180  and  _181
REMARK   79  A    between atoms: _183  and  _185
REMARK   80  A    between atoms: _185  and  _186
REMARK   81  A    between atoms: _185  and  _188
REMARK   82  A    between atoms: _188  and  _189
REMARK   83  A    between atoms: _192  and  _194
REMARK   84  A    between atoms: _194  and  _195
REMARK   85  A    between atoms: _194  and  _197
REMARK   86  A    between atoms: _197  and  _198
REMARK   87  A    between atoms: _201  and  _203
REMARK   88  A    between atoms: _203  and  _204
REMARK   89  A    between atoms: _203  and  _206
REMARK   90  A    between atoms: _209  and  _211
REMARK   91  A    between atoms: _211  and  _212
REMARK   92  A    between atoms: _211  and  _214
REMARK   93  A    between atoms: _214  and  _215
REMARK   94  A    between atoms: _215  and  _216
REMARK   95  A    between atoms: _219  and  _221
REMARK   96  A    between atoms: _221  and  _222
REMARK   97  A    between atoms: _221  and  _224
REMARK   98  A    between atoms: _224  and  _225
REMARK   99  A    between atoms: _228  and  _230
REMARK  100  A    between atoms: _230  and  _231
REMARK  101  A    between atoms: _230  and  _233
REMARK  102  A    between atoms: _233  and  _234
REMARK  103  A    between atoms: _237  and  _239
REMARK  104  A    between atoms: _239  and  _240
REMARK  105  A    between atoms: _239  and  _242
REMARK  106  A    between atoms: _242  and  _243
REMARK  107  A    between atoms: _246  and  _248
REMARK  108  A    between atoms: _248  and  _249
REMARK  109  A    between atoms: _248  and  _251
REMARK  110  A    between atoms: _251  and  _252
REMARK  111  A    between atoms: _255  and  _257
REMARK  112  A    between atoms: _257  and  _258
REMARK  113  A    between atoms: _257  and  _260
REMARK  114  A    between atoms: _260  and  _261
REMARK  115  A    between atoms: _264  and  _266
REMARK  116  A    between atoms: _266  and  _267
REMARK  117  A    between atoms: _269  and  _271
REMARK  118  A    between atoms: _271  and  _272
REMARK  119  A    between atoms: _271  and  _274
REMARK  120  A    between atoms: _274  and  _275
REMARK  121  A    between atoms: _275  and  _276
REMARK  122  A    between atoms: _276  and  _277
REMARK  123  A    between atoms: _277  and  _278
REMARK  124  A    between atoms: _282  and  _284
REMARK  125  A    between atoms: _284  and  _285
REMARK  126  A    between atoms: _284  and  _287
REMARK  127  A    between atoms: _287  and  _288
REMARK  128  A    between atoms: _291  and  _293
REMARK  129  A    between atoms: _293  and  _294
REMARK  130  A    between atoms: _293  and  _296
REMARK  131  A    between atoms: _296  and  _297
REMARK  132  A    between atoms: _300  and  _302
REMARK  133  A    between atoms: _302  and  _303
REMARK  134  A    between atoms: _302  and  _305
REMARK  135  A    between atoms: _308  and  _310
REMARK  136  A    between atoms: _310  and  _311
REMARK  137  A    between atoms: _310  and  _313
REMARK  138  A    between atoms: _313  and  _314
REMARK  139  A    between atoms: _314  and  _315
REMARK  140  A    between atoms: _315  and  _316
REMARK  141  A    between atoms: _316  and  _317
REMARK  142  A    between atoms: _321  and  _323
REMARK  143  A    between atoms: _323  and  _324
REMARK  144  A    between atoms: _323  and  _326
REMARK  145  A    between atoms: _326  and  _327
REMARK  146  A    between atoms: _333  and  _335
REMARK  147  A    between atoms: _335  and  _336
REMARK  148  A    between atoms: _335  and  _338
REMARK  149  A    between atoms: _340  and  _342
REMARK  150  A    between atoms: _342  and  _343
REMARK  151  A    between atoms: _342  and  _345
REMARK  152  A    between atoms: _345  and  _346
REMARK  153  A    between atoms: _352  and  _354
REMARK  154  A    between atoms: _354  and  _355
REMARK  155  A    between atoms: _354  and  _357
REMARK  156  A    between atoms: _357  and  _358
REMARK  157  A    between atoms: _358  and  _359
REMARK  158  A    between atoms: _359  and  _360
REMARK  159  A    between atoms: _360  and  _361
REMARK  160  A    between atoms: _365  and  _367
REMARK  161  A    between atoms: _367  and  _368
REMARK  162  A    between atoms: _367  and  _370
REMARK  163  A    between atoms: _370  and  _371
REMARK  164  A    between atoms: _374  and  _376
REMARK  165  A    between atoms: _376  and  _377
REMARK  166  A    between atoms: _376  and  _379
REMARK  167  A    between atoms: _379  and  _380
REMARK  168  A    between atoms: _383  and  _385
REMARK  169  A    between atoms: _385  and  _386
REMARK  170  A    between atoms: _385  and  _388
REMARK  171  A    between atoms: _388  and  _389
REMARK  172  A    between atoms: _399  and  _401
REMARK  173  A    between atoms: _401  and  _402
REMARK  174  A    between atoms: _401  and  _404
REMARK  175  A    between atoms: _404  and  _405
REMARK  176  A    between atoms: _410  and  _412
REMARK  177  A    between atoms: _412  and  _413
REMARK  178  A    between atoms: _412  and  _415
REMARK  179  A    between atoms: _415  and  _416
REMARK  180  A    between atoms: _422  and  _424
REMARK  181  A    between atoms: _424  and  _425
REMARK  182  A    between atoms: _424  and  _427
REMARK  183  A    between atoms: _427  and  _428
REMARK  184  A    between atoms: _432  and  _433
REMARK  185  A    between atoms: _438  and  _440
REMARK  186  A    between atoms: _440  and  _441
REMARK  187  A    between atoms: _440  and  _443
REMARK  188  A    between atoms: _443  and  _444
REMARK  189  A    between atoms: _447  and  _449
REMARK  190  A    between atoms: _449  and  _450
REMARK  191  A    between atoms: _449  and  _452
REMARK  192  A    between atoms: _452  and  _453
REMARK  193  A    between atoms: _458  and  _460
REMARK  194  A    between atoms: _460  and  _461
REMARK  195  A    between atoms: _460  and  _463
REMARK  196  A    between atoms: _463  and  _464
REMARK  197  A    between atoms: _470  and  _472
REMARK  198  A    between atoms: _472  and  _473
REMARK  199  A    between atoms: _472  and  _475
REMARK  200  A    between atoms: _478  and  _480
REMARK  201  A    between atoms: _480  and  _481
REMARK  202  A    between atoms: _480  and  _483
REMARK  203  A    between atoms: _486  and  _488
REMARK  204  A    between atoms: _488  and  _489
REMARK  205  A    between atoms: _491  and  _493
REMARK  206  A    between atoms: _493  and  _494
REMARK  207  A    between atoms: _493  and  _496
REMARK  208  A    between atoms: _496  and  _497
REMARK  209  A    between atoms: _499  and  _501
REMARK  210  A    between atoms: _501  and  _502
REMARK  211  A    between atoms: _501  and  _504
REMARK  212  A    between atoms: _504  and  _505
REMARK  213  A    between atoms: _508  and  _510
REMARK  214  A    between atoms: _510  and  _511
REMARK  215  A    between atoms: _510  and  _513
REMARK  216  A    between atoms: _513  and  _514
REMARK  217  A    between atoms: _514  and  _515
REMARK  218  A    between atoms: _515  and  MG_622
REMARK  219  A    between atoms: _517  and  _519
REMARK  220  A    between atoms: _519  and  _520
REMARK  221  A    between atoms: _519  and  _522
REMARK  222  A    between atoms: _522  and  _523
REMARK  223  A    between atoms: _528  and  _529
REMARK  224  A    between atoms: _531  and  _533
REMARK  225  A    between atoms: _533  and  _534
REMARK  226  A    between atoms: _533  and  _536
REMARK  227  A    between atoms: _536  and  _537
REMARK  228  A    between atoms: _542  and  _544
REMARK  229  A    between atoms: _544  and  _545
REMARK  230  A    between atoms: _544  and  _547
REMARK  231  A    between atoms: _547  and  _548
REMARK  232  A    between atoms: _548  and  _549
REMARK  233  A    between atoms: _552  and  _554
REMARK  234  A    between atoms: _554  and  _555
REMARK  235  A    between atoms: _554  and  _557
REMARK  236  A    between atoms: _557  and  _558
REMARK  237  A    between atoms: _561  and  _563
REMARK  238  A    between atoms: _563  and  _564
REMARK  239  A    between atoms: _563  and  _566
REMARK  240  A    between atoms: _566  and  _567
REMARK  241  A    between atoms: _567  and  _568
REMARK  242  A    between atoms: _568  and  _569
REMARK  243  A    between atoms: _578  and  _580
REMARK  244  A    between atoms: _580  and  _581
REMARK  245  A    between atoms: _580  and  _583
REMARK  246  A    between atoms: _585  and  _587
REMARK  247  A    between atoms: _587  and  _588
REMARK  248  A    between atoms: _587  and  _590
REMARK  249  A    between atoms: _592  and  _594
REMARK  250  A    between atoms: _594  and  _595
REMARK  251  A    between atoms: _594  and  _597
REMARK  252  A    between atoms: _597  and  _598
REMARK  253  A    between atoms: _601  and  _603
REMARK  254  A    between atoms: _603  and  _604
REMARK  255  A    between atoms: _603  and  _606
REMARK  256  A    between atoms: _609  and  _611
REMARK  257  A    between atoms: _611  and  _612
REMARK  258  A    between atoms: _611  and  _614
REMARK  259  A    between atoms: _614  and  _615
REMARK  260  A    between atoms: _615  and  _616
REMARK  261  A    between atoms: _616  and  _617
REMARK  262  A    between atoms: _617  and  _618
REMARK                            x       y       z     vdW  Elec       q    Type
REMARK                         _______ _______ _______ _____ _____    ______ ____
ROOT
ATOM      1  CA  CYS A   1      61.368  46.251  71.180  0.00  0.00    +0.145 C 
ENDROOT
BRANCH   1   2
ATOM      2  N   CYS A   1      60.799  47.105  70.181  0.00  0.00    -0.238 NA
ATOM      3  H   CYS A   1      61.191  48.060  70.056  0.00  0.00    +0.142 HD
ENDBRANCH   1   2
BRANCH   1   4
ATOM      4  C   CYS A   1      61.534  47.056  72.477  0.00  0.00    +0.225 C 
ATOM      5  O   CYS A   1      61.966  48.193  72.436  0.00  0.00    -0.287 OA
ENDBRANCH   1   4
BRANCH   1   6
ATOM      6  CB  CYS A   1      62.716  45.747  70.664  0.00  0.00    +0.094 C 
ATOM      7  SG  CYS A   1      63.355  44.471  71.674  0.00  0.00    -0.080 S 
ENDBRANCH   1   6
TORSDOF 3
REMARK  Name = ../refined-set-2016/3ozg/3ozg_pocket.pdb
REMARK  262 active torsions:
REMARK  status: ('A' for Active; 'I' for Inactive)
REMARK    1  A    between atoms: _1  and  _3
REMARK    2  A    between atoms: _3  and  _4
REMARK    3  A    between atoms: _3  and  _6
REMARK    4  A    between atoms: _6  and  _7
REMARK    5  A    between atoms: _10  and  _12
REMARK    6  A    between atoms: _12  and  _13
REMARK    7  A    between atoms: _12  and  _15
REMARK    8  A    between atoms: _15  and  _16
REMARK    9  A    between atoms: _19  and  _21
REMARK   10  A    between atoms: _21  and  _22
REMARK   11  A    between atoms: _21  and  _24
REMARK   12  A    between atoms: _24  and  _25
REMARK   13  A    between atoms: _25  and  _26
REMARK   14  A    between atoms: _26  and  _27
REMARK   15  A    between atoms: _27  and  _28
REMARK   16  A    between atoms: _32  and  _34
REMARK   17  A    between atoms: _34  and  _35
REMARK   18  A    between atoms: _37  and  _39
REMARK   19  A    between atoms: _39  and  _40
REMARK   20  A    between atoms: _39  and  _42
REMARK   21  A    between atoms: _42  and  _43
REMARK   22  A    between atoms: _45  and  _47
REMARK   23  A    between atoms: _47  and  _48
REMARK   24  A    between atoms: _47  and  _50
REMARK   25  A    between atoms: _50  and  _51
REMARK   26  A    between atoms: _51  and  _52
REMARK   27  A    between atoms: _52  and  _53
REMARK   28  A    between atoms: _62  and  _64
REMARK   29  A    between atoms: _64  and  _65
REMARK   30  A    between atoms: _64  and  _67
REMARK   31  A    between atoms: _67  and  _68
REMARK   32  A    between atoms: _68  and  _69
REMARK   33  A    between atoms: _69  and  _70
REMARK   34  A    between atoms: _79  and  _81
REMARK   35  A    between atoms: _81  and  _82
REMARK   36  A    between atoms: _81  and  _84
REMARK   37  A    between atoms: _87  and  _89
REMARK   38  A    between atoms: _89  and  _90
REMARK   39  A    between atoms: _89  and  _92
REMARK   40  A    between atoms: _92  and  _93
REMARK   41  A    between atoms: _93  and  _94
REMARK   42  A    between atoms: _94  and  _95
REMARK   43  A    between atoms: _95  and  _96
REMARK   44  A    between atoms: _100  and  _102
REMARK   45  A    between atoms: _102  and  _103
REMARK   46  A    between atoms: _102  and  _105
REMARK   47  A    between atoms: _105  and  _106
REMARK   48  A    between atoms: _108  and  _110
REMARK   49  A    between atoms: _110  and  _111
REMARK   50  A    between atoms: _110  and  _113
REMARK   51  A    between atoms: _113  and  _114
REMARK   52  A    between atoms: _119  and  _120
REMARK   53  A    between atoms: _122  and  _124
REMARK   54  A    between atoms: _124  and  _125
REMARK   55  A    between atoms: _124  and  _127
REMARK   56  A    between atoms: _129  and  _131
REMARK   57  A    between atoms: _131  and  _132
REMARK   58  A    between atoms: _131  and  _134
REMARK   59  A    between atoms: _134  and  _135
REMARK   60  A    between atoms: _140  and  _142
REMARK   61  A    between atoms: _142  and  _143
REMARK   62  A    between atoms: _142  and  _145
REMARK   63  A    between atoms: _145  and  _146
REMARK   64  A    between atoms: _149  and  _151
REMARK   65  A    between atoms: _151  and  _152
REMARK   66  A    between atoms: _151  and  _154
REMARK   67  A    between atoms: _154  and  _155
REMARK   68  A    between atoms: _155  and  _156
REMARK   69  A    between atoms: _161  and  _163
REMARK   70  A    between atoms: _163  and  _164
REMARK   71  A    between atoms: _163  and  _166
REMARK   72  A    between atoms: _166  and  _167
REMARK   73  A    between atoms: _169  and  _171
REMARK   74  A    between atoms: _171  and  _172
REMARK   75  A    between atoms: _171  and  _174
REMARK   76  A    between atoms: _174  and  _175
REMARK   77  A    between atoms: _178  and  _180
REMARK   78  A    between atoms: _180  and  _181
REMARK   79  A    between atoms: _183  and  _185
REMARK   80  A    between atoms: _185  and  _186
REMARK   81  A    between atoms: _185  and  _188
REMARK   82  A    between atoms: _188  and  _189
REMARK   83  A    between atoms: _192  and  _194
REMARK   84  A    between atoms: _194  and  _195
REMARK   85  A    between atoms: _194  and  _197
REMARK   86  A    between atoms: _197  and  _198
REMARK   87  A    between atoms: _201  and  _203
REMARK   88  A    between atoms: _203  and  _204
REMARK   89  A    between atoms: _203  and  _206
REMARK   90  A    between atoms: _209  and  _211
REMARK   91  A    between atoms: _211  and  _212
REMARK   92  A    between atoms: _211  and  _214
REMARK   93  A    between atoms: _214  and  _215
REMARK   94  A    between atoms: _215  and  _216
REMARK   95  A    between atoms: _219  and  _221
REMARK   96  A    between atoms: _221  and  _222
REMARK   97  A    between atoms: _221  and  _224
REMARK   98  A    between atoms: _224  and  _225
REMARK   99  A    between atoms: _228  and  _230
REMARK  100  A    between atoms: _230  and  _231
REMARK  101  A    between atoms: _230  and  _233
REMARK  102  A    between atoms: _233  and  _234
REMARK  103  A    between atoms: _237  and  _239
REMARK  104  A    between atoms: _239  and  _240
REMARK  105  A    between atoms: _239  and  _242
REMARK  106  A    between atoms: _242  and  _243
REMARK  107  A    between atoms: _246  and  _248
REMARK  108  A    between atoms: _248  and  _249
REMARK  109  A    between atoms: _248  and  _251
REMARK  110  A    between atoms: _251  and  _252
REMARK  111  A    between atoms: _255  and  _257
REMARK  112  A    between atoms: _257  and  _258
REMARK  113  A    between atoms: _257  and  _260
REMARK  114  A    between atoms: _260  and  _261
REMARK  115  A    between atoms: _264  and  _266
REMARK  116  A    between atoms: _266  and  _267
REMARK  117  A    between atoms: _269  and  _271
REMARK  118  A    between atoms: _271  and  _272
REMARK  119  A    between atoms: _271  and  _274
REMARK  120  A    between atoms: _274  and  _275
REMARK  121  A    between atoms: _275  and  _276
REMARK  122  A    between atoms: _276  and  _277
REMARK  123  A    between atoms: _277  and  _278
REMARK  124  A    between atoms: _282  and  _284
REMARK  125  A    between atoms: _284  and  _285
REMARK  126  A    between atoms: _284  and  _287
REMARK  127  A    between atoms: _287  and  _288
REMARK  128  A    between atoms: _291  and  _293
REMARK  129  A    between atoms: _293  and  _294
REMARK  130  A    between atoms: _293  and  _296
REMARK  131  A    between atoms: _296  and  _297
REMARK  132  A    between atoms: _300  and  _302
REMARK  133  A    between atoms: _302  and  _303
REMARK  134  A    between atoms: _302  and  _305
REMARK  135  A    between atoms: _308  and  _310
REMARK  136  A    between atoms: _310  and  _311
REMARK  137  A    between atoms: _310  and  _313
REMARK  138  A    between atoms: _313  and  _314
REMARK  139  A    between atoms: _314  and  _315
REMARK  140  A    between atoms: _315  and  _316
REMARK  141  A    between atoms: _316  and  _317
REMARK  142  A    between atoms: _321  and  _323
REMARK  143  A    between atoms: _323  and  _324
REMARK  144  A    between atoms: _323  and  _326
REMARK  145  A    between atoms: _326  and  _327
REMARK  146  A    between atoms: _333  and  _335
REMARK  147  A    between atoms: _335  and  _336
REMARK  148  A    between atoms: _335  and  _338
REMARK  149  A    between atoms: _340  and  _342
REMARK  150  A    between atoms: _342  and  _343
REMARK  151  A    between atoms: _342  and  _345
REMARK  152  A    between atoms: _345  and  _346
REMARK  153  A    between atoms: _352  and  _354
REMARK  154  A    between atoms: _354  and  _355
REMARK  155  A    between atoms: _354  and  _357
REMARK  156  A    between atoms: _357  and  _358
REMARK  157  A    between atoms: _358  and  _359
REMARK  158  A    between atoms: _359  and  _360
REMARK  159  A    between atoms: _360  and  _361
REMARK  160  A    between atoms: _365  and  _367
REMARK  161  A    between atoms: _367  and  _368
REMARK  162  A    between atoms: _367  and  _370
REMARK  163  A    between atoms: _370  and  _371
REMARK  164  A    between atoms: _374  and  _376
REMARK  165  A    between atoms: _376  and  _377
REMARK  166  A    between atoms: _376  and  _379
REMARK  167  A    between atoms: _379  and  _380
REMARK  168  A    between atoms: _383  and  _385
REMARK  169  A    between atoms: _385  and  _386
REMARK  170  A    between atoms: _385  and  _388
REMARK  171  A    between atoms: _388  and  _389
REMARK  172  A    between atoms: _399  and  _401
REMARK  173  A    between atoms: _401  and  _402
REMARK  174  A    between atoms: _401  and  _404
REMARK  175  A    between atoms: _404  and  _405
REMARK  176  A    between atoms: _410  and  _412
REMARK  177  A    between atoms: _412  and  _413
REMARK  178  A    between atoms: _412  and  _415
REMARK  179  A    between atoms: _415  and  _416
REMARK  180  A    between atoms: _422  and  _424
REMARK  181  A    between atoms: _424  and  _425
REMARK  182  A    between atoms: _424  and  _427
REMARK  183  A    between atoms: _427  and  _428
REMARK  184  A    between atoms: _432  and  _433
REMARK  185  A    between atoms: _438  and  _440
REMARK  186  A    between atoms: _440  and  _441
REMARK  187  A    between atoms: _440  and  _443
REMARK  188  A    between atoms: _443  and  _444
REMARK  189  A    between atoms: _447  and  _449
REMARK  190  A    between atoms: _449  and  _450
REMARK  191  A    between atoms: _449  and  _452
REMARK  192  A    between atoms: _452  and  _453
REMARK  193  A    between atoms: _458  and  _460
REMARK  194  A    between atoms: _460  and  _461
REMARK  195  A    between atoms: _460  and  _463
REMARK  196  A    between atoms: _463  and  _464
REMARK  197  A    between atoms: _470  and  _472
REMARK  198  A    between atoms: _472  and  _473
REMARK  199  A    between atoms: _472  and  _475
REMARK  200  A    between atoms: _478  and  _480
REMARK  201  A    between atoms: _480  and  _481
REMARK  202  A    between atoms: _480  and  _483
REMARK  203  A    between atoms: _486  and  _488
REMARK  204  A    between atoms: _488  and  _489
REMARK  205  A    between atoms: _491  and  _493
REMARK  206  A    between atoms: _493  and  _494
REMARK  207  A    between atoms: _493  and  _496
REMARK  208  A    between atoms: _496  and  _497
REMARK  209  A    between atoms: _499  and  _501
REMARK  210  A    between atoms: _501  and  _502
REMARK  211  A    between atoms: _501  and  _504
REMARK  212  A    between atoms: _504  and  _505
REMARK  213  A    between atoms: _508  and  _510
REMARK  214  A    between atoms: _510  and  _511
REMARK  215  A    between atoms: _510  and  _513
REMARK  216  A    between atoms: _513  and  _514
REMARK  217  A    between atoms: _514  and  _515
REMARK  218  A    between atoms: _515  and  MG_622
REMARK  219  A    between atoms: _517  and  _519
REMARK  220  A    between atoms: _519  and  _520
REMARK  221  A    between atoms: _519  and  _522
REMARK  222  A    between atoms: _522  and  _523
REMARK  223  A    between atoms: _528  and  _529
REMARK  224  A    between atoms: _531  and  _533
REMARK  225  A    between atoms: _533  and  _534
REMARK  226  A    between atoms: _533  and  _536
REMARK  227  A    between atoms: _536  and  _537
REMARK  228  A    between atoms: _542  and  _544
REMARK  229  A    between atoms: _544  and  _545
REMARK  230  A    between atoms: _544  and  _547
REMARK  231  A    between atoms: _547  and  _548
REMARK  232  A    between atoms: _548  and  _549
REMARK  233  A    between atoms: _552  and  _554
REMARK  234  A    between atoms: _554  and  _555
REMARK  235  A    between atoms: _554  and  _557
REMARK  236  A    between atoms: _557  and  _558
REMARK  237  A    between atoms: _561  and  _563
REMARK  238  A    between atoms: _563  and  _564
REMARK  239  A    between atoms: _563  and  _566
REMARK  240  A    between atoms: _566  and  _567
REMARK  241  A    between atoms: _567  and  _568
REMARK  242  A    between atoms: _568  and  _569
REMARK  243  A    between atoms: _578  and  _580
REMARK  244  A    between atoms: _580  and  _581
REMARK  245  A    between atoms: _580  and  _583
REMARK  246  A    between atoms: _585  and  _587
REMARK  247  A    between atoms: _587  and  _588
REMARK  248  A    between atoms: _587  and  _590
REMARK  249  A    between atoms: _592  and  _594
REMARK  250  A    between atoms: _594  and  _595
REMARK  251  A    between atoms: _594  and  _597
REMARK  252  A    between atoms: _597  and  _598
REMARK  253  A    between atoms: _601  and  _603
REMARK  254  A    between atoms: _603  and  _604
REMARK  255  A    between atoms: _603  and  _606
REMARK  256  A    between atoms: _609  and  _611
REMARK  257  A    between atoms: _611  and  _612
REMARK  258  A    between atoms: _611  and  _614
REMARK  259  A    between atoms: _614  and  _615
REMARK  260  A    between atoms: _615  and  _616
REMARK  261  A    between atoms: _616  and  _617
REMARK  262  A    between atoms: _617  and  _618
REMARK                            x       y       z     vdW  Elec       q    Type
REMARK                         _______ _______ _______ _____ _____    ______ ____
ROOT
ATOM      1  CB  PHE A   1      64.888  44.926  77.155  0.00  0.00    +0.051 C 
ENDROOT
BRANCH   1   2
ATOM      2  CG  PHE A   1      64.016  45.335  78.307  0.00  0.00    -0.020 A 
ATOM      3  CD2 PHE A   1      64.340  46.428  79.099  0.00  0.00    -0.004 A 
ATOM      4  CE2 PHE A   1      63.550  46.777  80.187  0.00  0.00    -0.000 A 
ATOM      5  CZ  PHE A   1      62.401  46.025  80.502  0.00  0.00    -0.000 A 
ATOM      6  CE1 PHE A   1      62.062  44.937  79.723  0.00  0.00    -0.000 A 
ATOM      7  CD1 PHE A   1      62.865  44.592  78.623  0.00  0.00    -0.004 A 
ENDBRANCH   1   2
BRANCH   1   8
ATOM      8  CA  PHE A   1      64.731  45.779  75.888  0.00  0.00    +0.137 C 
BRANCH   8   9
ATOM      9  N   PHE A   1      63.328  45.921  75.472  0.00  0.00    -0.239 NA
ATOM     10  H   PHE A   1      62.774  45.075  75.229  0.00  0.00    +0.142 HD
ENDBRANCH   8   9
BRANCH   8  11
ATOM     11  C   PHE A   1      65.582  45.129  74.816  0.00  0.00    +0.224 C 
ATOM     12  O   PHE A   1      65.155  44.192  74.161  0.00  0.00    -0.287 OA
ENDBRANCH   8  11
ENDBRANCH   1   8
TORSDOF 4
REMARK  Name = ../refined-set-2016/3ozg/3ozg_pocket.pdb
REMARK  262 active torsions:
REMARK  status: ('A' for Active; 'I' for Inactive)
REMARK    1  A    between atoms: _1  and  _3
REMARK    2  A    between atoms: _3  and  _4
REMARK    3  A    between atoms: _3  and  _6
REMARK    4  A    between atoms: _6  and  _7
REMARK    5  A    between atoms: _10  and  _12
REMARK    6  A    between atoms: _12  and  _13
REMARK    7  A    between atoms: _12  and  _15
REMARK    8  A    between atoms: _15  and  _16
REMARK    9  A    between atoms: _19  and  _21
REMARK   10  A    between atoms: _21  and  _22
REMARK   11  A    between atoms: _21  and  _24
REMARK   12  A    between atoms: _24  and  _25
REMARK   13  A    between atoms: _25  and  _26
REMARK   14  A    between atoms: _26  and  _27
REMARK   15  A    between atoms: _27  and  _28
REMARK   16  A    between atoms: _32  and  _34
REMARK   17  A    between atoms: _34  and  _35
REMARK   18  A    between atoms: _37  and  _39
REMARK   19  A    between atoms: _39  and  _40
REMARK   20  A    between atoms: _39  and  _42
REMARK   21  A    between atoms: _42  and  _43
REMARK   22  A    between atoms: _45  and  _47
REMARK   23  A    between atoms: _47  and  _48
REMARK   24  A    between atoms: _47  and  _50
REMARK   25  A    between atoms: _50  and  _51
REMARK   26  A    between atoms: _51  and  _52
REMARK   27  A    between atoms: _52  and  _53
REMARK   28  A    between atoms: _62  and  _64
REMARK   29  A    between atoms: _64  and  _65
REMARK   30  A    between atoms: _64  and  _67
REMARK   31  A    between atoms: _67  and  _68
REMARK   32  A    between atoms: _68  and  _69
REMARK   33  A    between atoms: _69  and  _70
REMARK   34  A    between atoms: _79  and  _81
REMARK   35  A    between atoms: _81  and  _82
REMARK   36  A    between atoms: _81  and  _84
REMARK   37  A    between atoms: _87  and  _89
REMARK   38  A    between atoms: _89  and  _90
REMARK   39  A    between atoms: _89  and  _92
REMARK   40  A    between atoms: _92  and  _93
REMARK   41  A    between atoms: _93  and  _94
REMARK   42  A    between atoms: _94  and  _95
REMARK   43  A    between atoms: _95  and  _96
REMARK   44  A    between atoms: _100  and  _102
REMARK   45  A    between atoms: _102  and  _103
REMARK   46  A    between atoms: _102  and  _105
REMARK   47  A    between atoms: _105  and  _106
REMARK   48  A    between atoms: _108  and  _110
REMARK   49  A    between atoms: _110  and  _111
REMARK   50  A    between atoms: _110  and  _113
REMARK   51  A    between atoms: _113  and  _114
REMARK   52  A    between atoms: _119  and  _120
REMARK   53  A    between atoms: _122  and  _124
REMARK   54  A    between atoms: _124  and  _125
REMARK   55  A    between atoms: _124  and  _127
REMARK   56  A    between atoms: _129  and  _131
REMARK   57  A    between atoms: _131  and  _132
REMARK   58  A    between atoms: _131  and  _134
REMARK   59  A    between atoms: _134  and  _135
REMARK   60  A    between atoms: _140  and  _142
REMARK   61  A    between atoms: _142  and  _143
REMARK   62  A    between atoms: _142  and  _145
REMARK   63  A    between atoms: _145  and  _146
REMARK   64  A    between atoms: _149  and  _151
REMARK   65  A    between atoms: _151  and  _152
REMARK   66  A    between atoms: _151  and  _154
REMARK   67  A    between atoms: _154  and  _155
REMARK   68  A    between atoms: _155  and  _156
REMARK   69  A    between atoms: _161  and  _163
REMARK   70  A    between atoms: _163  and  _164
REMARK   71  A    between atoms: _163  and  _166
REMARK   72  A    between atoms: _166  and  _167
REMARK   73  A    between atoms: _169  and  _171
REMARK   74  A    between atoms: _171  and  _172
REMARK   75  A    between atoms: _171  and  _174
REMARK   76  A    between atoms: _174  and  _175
REMARK   77  A    between atoms: _178  and  _180
REMARK   78  A    between atoms: _180  and  _181
REMARK   79  A    between atoms: _183  and  _185
REMARK   80  A    between atoms: _185  and  _186
REMARK   81  A    between atoms: _185  and  _188
REMARK   82  A    between atoms: _188  and  _189
REMARK   83  A    between atoms: _192  and  _194
REMARK   84  A    between atoms: _194  and  _195
REMARK   85  A    between atoms: _194  and  _197
REMARK   86  A    between atoms: _197  and  _198
REMARK   87  A    between atoms: _201  and  _203
REMARK   88  A    between atoms: _203  and  _204
REMARK   89  A    between atoms: _203  and  _206
REMARK   90  A    between atoms: _209  and  _211
REMARK   91  A    between atoms: _211  and  _212
REMARK   92  A    between atoms: _211  and  _214
REMARK   93  A    between atoms: _214  and  _215
REMARK   94  A    between atoms: _215  and  _216
REMARK   95  A    between atoms: _219  and  _221
REMARK   96  A    between atoms: _221  and  _222
REMARK   97  A    between atoms: _221  and  _224
REMARK   98  A    between atoms: _224  and  _225
REMARK   99  A    between atoms: _228  and  _230
REMARK  100  A    between atoms: _230  and  _231
REMARK  101  A    between atoms: _230  and  _233
REMARK  102  A    between atoms: _233  and  _234
REMARK  103  A    between atoms: _237  and  _239
REMARK  104  A    between atoms: _239  and  _240
REMARK  105  A    between atoms: _239  and  _242
REMARK  106  A    between atoms: _242  and  _243
REMARK  107  A    between atoms: _246  and  _248
REMARK  108  A    between atoms: _248  and  _249
REMARK  109  A    between atoms: _248  and  _251
REMARK  110  A    between atoms: _251  and  _252
REMARK  111  A    between atoms: _255  and  _257
REMARK  112  A    between atoms: _257  and  _258
REMARK  113  A    between atoms: _257  and  _260
REMARK  114  A    between atoms: _260  and  _261
REMARK  115  A    between atoms: _264  and  _266
REMARK  116  A    between atoms: _266  and  _267
REMARK  117  A    between atoms: _269  and  _271
REMARK  118  A    between atoms: _271  and  _272
REMARK  119  A    between atoms: _271  and  _274
REMARK  120  A    between atoms: _274  and  _275
REMARK  121  A    between atoms: _275  and  _276
REMARK  122  A    between atoms: _276  and  _277
REMARK  123  A    between atoms: _277  and  _278
REMARK  124  A    between atoms: _282  and  _284
REMARK  125  A    between atoms: _284  and  _285
REMARK  126  A    between atoms: _284  and  _287
REMARK  127  A    between atoms: _287  and  _288
REMARK  128  A    between atoms: _291  and  _293
REMARK  129  A    between atoms: _293  and  _294
REMARK  130  A    between atoms: _293  and  _296
REMARK  131  A    between atoms: _296  and  _297
REMARK  132  A    between atoms: _300  and  _302
REMARK  133  A    between atoms: _302  and  _303
REMARK  134  A    between atoms: _302  and  _305
REMARK  135  A    between atoms: _308  and  _310
REMARK  136  A    between atoms: _310  and  _311
REMARK  137  A    between atoms: _310  and  _313
REMARK  138  A    between atoms: _313  and  _314
REMARK  139  A    between atoms: _314  and  _315
REMARK  140  A    between atoms: _315  and  _316
REMARK  141  A    between atoms: _316  and  _317
REMARK  142  A    between atoms: _321  and  _323
REMARK  143  A    between atoms: _323  and  _324
REMARK  144  A    between atoms: _323  and  _326
REMARK  145  A    between atoms: _326  and  _327
REMARK  146  A    between atoms: _333  and  _335
REMARK  147  A    between atoms: _335  and  _336
REMARK  148  A    between atoms: _335  and  _338
REMARK  149  A    between atoms: _340  and  _342
REMARK  150  A    between atoms: _342  and  _343
REMARK  151  A    between atoms: _342  and  _345
REMARK  152  A    between atoms: _345  and  _346
REMARK  153  A    between atoms: _352  and  _354
REMARK  154  A    between atoms: _354  and  _355
REMARK  155  A    between atoms: _354  and  _357
REMARK  156  A    between atoms: _357  and  _358
REMARK  157  A    between atoms: _358  and  _359
REMARK  158  A    between atoms: _359  and  _360
REMARK  159  A    between atoms: _360  and  _361
REMARK  160  A    between atoms: _365  and  _367
REMARK  161  A    between atoms: _367  and  _368
REMARK  162  A    between atoms: _367  and  _370
REMARK  163  A    between atoms: _370  and  _371
REMARK  164  A    between atoms: _374  and  _376
REMARK  165  A    between atoms: _376  and  _377
REMARK  166  A    between atoms: _376  and  _379
REMARK  167  A    between atoms: _379  and  _380
REMARK  168  A    between atoms: _383  and  _385
REMARK  169  A    between atoms: _385  and  _386
REMARK  170  A    between atoms: _385  and  _388
REMARK  171  A    between atoms: _388  and  _389
REMARK  172  A    between atoms: _399  and  _401
REMARK  173  A    between atoms: _401  and  _402
REMARK  174  A    between atoms: _401  and  _404
REMARK  175  A    between atoms: _404  and  _405
REMARK  176  A    between atoms: _410  and  _412
REMARK  177  A    between atoms: _412  and  _413
REMARK  178  A    between atoms: _412  and  _415
REMARK  179  A    between atoms: _415  and  _416
REMARK  180  A    between atoms: _422  and  _424
REMARK  181  A    between atoms: _424  and  _425
REMARK  182  A    between atoms: _424  and  _427
REMARK  183  A    between atoms: _427  and  _428
REMARK  184  A    between atoms: _432  and  _433
REMARK  185  A    between atoms: _438  and  _440
REMARK  186  A    between atoms: _440  and  _441
REMARK  187  A    between atoms: _440  and  _443
REMARK  188  A    between atoms: _443  and  _444
REMARK  189  A    between atoms: _447  and  _449
REMARK  190  A    between atoms: _449  and  _450
REMARK  191  A    between atoms: _449  and  _452
REMARK  192  A    between atoms: _452  and  _453
REMARK  193  A    between atoms: _458  and  _460
REMARK  194  A    between atoms: _460  and  _461
REMARK  195  A    between atoms: _460  and  _463
REMARK  196  A    between atoms: _463  and  _464
REMARK  197  A    between atoms: _470  and  _472
REMARK  198  A    between atoms: _472  and  _473
REMARK  199  A    between atoms: _472  and  _475
REMARK  200  A    between atoms: _478  and  _480
REMARK  201  A    between atoms: _480  and  _481
REMARK  202  A    between atoms: _480  and  _483
REMARK  203  A    between atoms: _486  and  _488
REMARK  204  A    between atoms: _488  and  _489
REMARK  205  A    between atoms: _491  and  _493
REMARK  206  A    between atoms: _493  and  _494
REMARK  207  A    between atoms: _493  and  _496
REMARK  208  A    between atoms: _496  and  _497
REMARK  209  A    between atoms: _499  and  _501
REMARK  210  A    between atoms: _501  and  _502
REMARK  211  A    between atoms: _501  and  _504
REMARK  212  A    between atoms: _504  and  _505
REMARK  213  A    between atoms: _508  and  _510
REMARK  214  A    between atoms: _510  and  _511
REMARK  215  A    between atoms: _510  and  _513
REMARK  216  A    between atoms: _513  and  _514
REMARK  217  A    between atoms: _514  and  _515
REMARK  218  A    between atoms: _515  and  MG_622
REMARK  219  A    between atoms: _517  and  _519
REMARK  220  A    between atoms: _519  and  _520
REMARK  221  A    between atoms: _519  and  _522
REMARK  222  A    between atoms: _522  and  _523
REMARK  223  A    between atoms: _528  and  _529
REMARK  224  A    between atoms: _531  and  _533
REMARK  225  A    between atoms: _533  and  _534
REMARK  226  A    between atoms: _533  and  _536
REMARK  227  A    between atoms: _536  and  _537
REMARK  228  A    between atoms: _542  and  _544
REMARK  229  A    between atoms: _544  and  _545
REMARK  230  A    between atoms: _544  and  _547
REMARK  231  A    between atoms: _547  and  _548
REMARK  232  A    between atoms: _548  and  _549
REMARK  233  A    between atoms: _552  and  _554
REMARK  234  A    between atoms: _554  and  _555
REMARK  235  A    between atoms: _554  and  _557
REMARK  236  A    between atoms: _557  and  _558
REMARK  237  A    between atoms: _561  and  _563
REMARK  238  A    between atoms: _563  and  _564
REMARK  239  A    between atoms: _563  and  _566
REMARK  240  A    between atoms: _566  and  _567
REMARK  241  A    between atoms: _567  and  _568
REMARK  242  A    between atoms: _568  and  _569
REMARK  243  A    between atoms: _578  and  _580
REMARK  244  A    between atoms: _580  and  _581
REMARK  245  A    between atoms: _580  and  _583
REMARK  246  A    between atoms: _585  and  _587
REMARK  247  A    between atoms: _587  and  _588
REMARK  248  A    between atoms: _587  and  _590
REMARK  249  A    between atoms: _592  and  _594
REMARK  250  A    between atoms: _594  and  _595
REMARK  251  A    between atoms: _594  and  _597
REMARK  252  A    between atoms: _597  and  _598
REMARK  253  A    between atoms: _601  and  _603
REMARK  254  A    between atoms: _603  and  _604
REMARK  255  A    between atoms: _603  and  _606
REMARK  256  A    between atoms: _609  and  _611
REMARK  257  A    between atoms: _611  and  _612
REMARK  258  A    between atoms: _611  and  _614
REMARK  259  A    between atoms: _614  and  _615
REMARK  260  A    between atoms: _615  and  _616
REMARK  261  A    between atoms: _616  and  _617
REMARK  262  A    between atoms: _617  and  _618
REMARK                            x       y       z     vdW  Elec       q    Type
REMARK                         _______ _______ _______ _____ _____    ______ ____
ROOT
ATOM      1  CG  LYS A   1      71.145  41.032  77.419  0.00  0.00    -0.000 C 
ENDROOT
BRANCH   1   2
ATOM      2  CB  LYS A   1      70.160  41.503  76.329  0.00  0.00    +0.025 C 
BRANCH   2   3
ATOM      3  CA  LYS A   1      70.477  42.883  75.751  0.00  0.00    +0.133 C 
BRANCH   3   4
ATOM      4  N   LYS A   1      69.430  43.311  74.839  0.00  0.00    -0.239 NA
ATOM      5  H   LYS A   1      68.971  42.606  74.227  0.00  0.00    +0.142 HD
ENDBRANCH   3   4
BRANCH   3   6
ATOM      6  C   LYS A   1      71.823  42.870  75.034  0.00  0.00    +0.224 C 
ATOM      7  O   LYS A   1      71.959  42.316  73.942  0.00  0.00    -0.287 OA
ENDBRANCH   3   6
ENDBRANCH   2   3
ENDBRANCH   1   2
BRANCH   1   8
ATOM      8  CD  LYS A   1      70.930  39.570  77.871  0.00  0.00    -0.024 C 
BRANCH   8   9
ATOM      9  CE  LYS A   1      69.569  39.366  78.557  0.00  0.00    -0.086 C 
BRANCH   9  10
ATOM     10  NZ  LYS A   1      69.274  37.928  78.950  0.00  0.00    +0.380 N 
ATOM     11  HZ1 LYS A   1      70.002  37.595  79.614  0.00  0.00    -0.089 HD
ATOM     12  HZ2 LYS A   1      68.340  37.879  79.405  0.00  0.00    -0.089 HD
ATOM     13  HZ3 LYS A   1      69.279  37.330  78.099  0.00  0.00    -0.089 HD
ENDBRANCH   9  10
ENDBRANCH   8   9
ENDBRANCH   1   8
TORSDOF 7
REMARK  Name = ../refined-set-2016/3ozg/3ozg_pocket.pdb
REMARK  262 active torsions:
REMARK  status: ('A' for Active; 'I' for Inactive)
REMARK    1  A    between atoms: _1  and  _3
REMARK    2  A    between atoms: _3  and  _4
REMARK    3  A    between atoms: _3  and  _6
REMARK    4  A    between atoms: _6  and  _7
REMARK    5  A    between atoms: _10  and  _12
REMARK    6  A    between atoms: _12  and  _13
REMARK    7  A    between atoms: _12  and  _15
REMARK    8  A    between atoms: _15  and  _16
REMARK    9  A    between atoms: _19  and  _21
REMARK   10  A    between atoms: _21  and  _22
REMARK   11  A    between atoms: _21  and  _24
REMARK   12  A    between atoms: _24  and  _25
REMARK   13  A    between atoms: _25  and  _26
REMARK   14  A    between atoms: _26  and  _27
REMARK   15  A    between atoms: _27  and  _28
REMARK   16  A    between atoms: _32  and  _34
REMARK   17  A    between atoms: _34  and  _35
REMARK   18  A    between atoms: _37  and  _39
REMARK   19  A    between atoms: _39  and  _40
REMARK   20  A    between atoms: _39  and  _42
REMARK   21  A    between atoms: _42  and  _43
REMARK   22  A    between atoms: _45  and  _47
REMARK   23  A    between atoms: _47  and  _48
REMARK   24  A    between atoms: _47  and  _50
REMARK   25  A    between atoms: _50  and  _51
REMARK   26  A    between atoms: _51  and  _52
REMARK   27  A    between atoms: _52  and  _53
REMARK   28  A    between atoms: _62  and  _64
REMARK   29  A    between atoms: _64  and  _65
REMARK   30  A    between atoms: _64  and  _67
REMARK   31  A    between atoms: _67  and  _68
REMARK   32  A    between atoms: _68  and  _69
REMARK   33  A    between atoms: _69  and  _70
REMARK   34  A    between atoms: _79  and  _81
REMARK   35  A    between atoms: _81  and  _82
REMARK   36  A    between atoms: _81  and  _84
REMARK   37  A    between atoms: _87  and  _89
REMARK   38  A    between atoms: _89  and  _90
REMARK   39  A    between atoms: _89  and  _92
REMARK   40  A    between atoms: _92  and  _93
REMARK   41  A    between atoms: _93  and  _94
REMARK   42  A    between atoms: _94  and  _95
REMARK   43  A    between atoms: _95  and  _96
REMARK   44  A    between atoms: _100  and  _102
REMARK   45  A    between atoms: _102  and  _103
REMARK   46  A    between atoms: _102  and  _105
REMARK   47  A    between atoms: _105  and  _106
REMARK   48  A    between atoms: _108  and  _110
REMARK   49  A    between atoms: _110  and  _111
REMARK   50  A    between atoms: _110  and  _113
REMARK   51  A    between atoms: _113  and  _114
REMARK   52  A    between atoms: _119  and  _120
REMARK   53  A    between atoms: _122  and  _124
REMARK   54  A    between atoms: _124  and  _125
REMARK   55  A    between atoms: _124  and  _127
REMARK   56  A    between atoms: _129  and  _131
REMARK   57  A    between atoms: _131  and  _132
REMARK   58  A    between atoms: _131  and  _134
REMARK   59  A    between atoms: _134  and  _135
REMARK   60  A    between atoms: _140  and  _142
REMARK   61  A    between atoms: _142  and  _143
REMARK   62  A    between atoms: _142  and  _145
REMARK   63  A    between atoms: _145  and  _146
REMARK   64  A    between atoms: _149  and  _151
REMARK   65  A    between atoms: _151  and  _152
REMARK   66  A    between atoms: _151  and  _154
REMARK   67  A    between atoms: _154  and  _155
REMARK   68  A    between atoms: _155  and  _156
REMARK   69  A    between atoms: _161  and  _163
REMARK   70  A    between atoms: _163  and  _164
REMARK   71  A    between atoms: _163  and  _166
REMARK   72  A    between atoms: _166  and  _167
REMARK   73  A    between atoms: _169  and  _171
REMARK   74  A    between atoms: _171  and  _172
REMARK   75  A    between atoms: _171  and  _174
REMARK   76  A    between atoms: _174  and  _175
REMARK   77  A    between atoms: _178  and  _180
REMARK   78  A    between atoms: _180  and  _181
REMARK   79  A    between atoms: _183  and  _185
REMARK   80  A    between atoms: _185  and  _186
REMARK   81  A    between atoms: _185  and  _188
REMARK   82  A    between atoms: _188  and  _189
REMARK   83  A    between atoms: _192  and  _194
REMARK   84  A    between atoms: _194  and  _195
REMARK   85  A    between atoms: _194  and  _197
REMARK   86  A    between atoms: _197  and  _198
REMARK   87  A    between atoms: _201  and  _203
REMARK   88  A    between atoms: _203  and  _204
REMARK   89  A    between atoms: _203  and  _206
REMARK   90  A    between atoms: _209  and  _211
REMARK   91  A    between atoms: _211  and  _212
REMARK   92  A    between atoms: _211  and  _214
REMARK   93  A    between atoms: _214  and  _215
REMARK   94  A    between atoms: _215  and  _216
REMARK   95  A    between atoms: _219  and  _221
REMARK   96  A    between atoms: _221  and  _222
REMARK   97  A    between atoms: _221  and  _224
REMARK   98  A    between atoms: _224  and  _225
REMARK   99  A    between atoms: _228  and  _230
REMARK  100  A    between atoms: _230  and  _231
REMARK  101  A    between atoms: _230  and  _233
REMARK  102  A    between atoms: _233  and  _234
REMARK  103  A    between atoms: _237  and  _239
REMARK  104  A    between atoms: _239  and  _240
REMARK  105  A    between atoms: _239  and  _242
REMARK  106  A    between atoms: _242  and  _243
REMARK  107  A    between atoms: _246  and  _248
REMARK  108  A    between atoms: _248  and  _249
REMARK  109  A    between atoms: _248  and  _251
REMARK  110  A    between atoms: _251  and  _252
REMARK  111  A    between atoms: _255  and  _257
REMARK  112  A    between atoms: _257  and  _258
REMARK  113  A    between atoms: _257  and  _260
REMARK  114  A    between atoms: _260  and  _261
REMARK  115  A    between atoms: _264  and  _266
REMARK  116  A    between atoms: _266  and  _267
REMARK  117  A    between atoms: _269  and  _271
REMARK  118  A    between atoms: _271  and  _272
REMARK  119  A    between atoms: _271  and  _274
REMARK  120  A    between atoms: _274  and  _275
REMARK  121  A    between atoms: _275  and  _276
REMARK  122  A    between atoms: _276  and  _277
REMARK  123  A    between atoms: _277  and  _278
REMARK  124  A    between atoms: _282  and  _284
REMARK  125  A    between atoms: _284  and  _285
REMARK  126  A    between atoms: _284  and  _287
REMARK  127  A    between atoms: _287  and  _288
REMARK  128  A    between atoms: _291  and  _293
REMARK  129  A    between atoms: _293  and  _294
REMARK  130  A    between atoms: _293  and  _296
REMARK  131  A    between atoms: _296  and  _297
REMARK  132  A    between atoms: _300  and  _302
REMARK  133  A    between atoms: _302  and  _303
REMARK  134  A    between atoms: _302  and  _305
REMARK  135  A    between atoms: _308  and  _310
REMARK  136  A    between atoms: _310  and  _311
REMARK  137  A    between atoms: _310  and  _313
REMARK  138  A    between atoms: _313  and  _314
REMARK  139  A    between atoms: _314  and  _315
REMARK  140  A    between atoms: _315  and  _316
REMARK  141  A    between atoms: _316  and  _317
REMARK  142  A    between atoms: _321  and  _323
REMARK  143  A    between atoms: _323  and  _324
REMARK  144  A    between atoms: _323  and  _326
REMARK  145  A    between atoms: _326  and  _327
REMARK  146  A    between atoms: _333  and  _335
REMARK  147  A    between atoms: _335  and  _336
REMARK  148  A    between atoms: _335  and  _338
REMARK  149  A    between atoms: _340  and  _342
REMARK  150  A    between atoms: _342  and  _343
REMARK  151  A    between atoms: _342  and  _345
REMARK  152  A    between atoms: _345  and  _346
REMARK  153  A    between atoms: _352  and  _354
REMARK  154  A    between atoms: _354  and  _355
REMARK  155  A    between atoms: _354  and  _357
REMARK  156  A    between atoms: _357  and  _358
REMARK  157  A    between atoms: _358  and  _359
REMARK  158  A    between atoms: _359  and  _360
REMARK  159  A    between atoms: _360  and  _361
REMARK  160  A    between atoms: _365  and  _367
REMARK  161  A    between atoms: _367  and  _368
REMARK  162  A    between atoms: _367  and  _370
REMARK  163  A    between atoms: _370  and  _371
REMARK  164  A    between atoms: _374  and  _376
REMARK  165  A    between atoms: _376  and  _377
REMARK  166  A    between atoms: _376  and  _379
REMARK  167  A    between atoms: _379  and  _380
REMARK  168  A    between atoms: _383  and  _385
REMARK  169  A    between atoms: _385  and  _386
REMARK  170  A    between atoms: _385  and  _388
REMARK  171  A    between atoms: _388  and  _389
REMARK  172  A    between atoms: _399  and  _401
REMARK  173  A    between atoms: _401  and  _402
REMARK  174  A    between atoms: _401  and  _404
REMARK  175  A    between atoms: _404  and  _405
REMARK  176  A    between atoms: _410  and  _412
REMARK  177  A    between atoms: _412  and  _413
REMARK  178  A    between atoms: _412  and  _415
REMARK  179  A    between atoms: _415  and  _416
REMARK  180  A    between atoms: _422  and  _424
REMARK  181  A    between atoms: _424  and  _425
REMARK  182  A    between atoms: _424  and  _427
REMARK  183  A    between atoms: _427  and  _428
REMARK  184  A    between atoms: _432  and  _433
REMARK  185  A    between atoms: _438  and  _440
REMARK  186  A    between atoms: _440  and  _441
REMARK  187  A    between atoms: _440  and  _443
REMARK  188  A    between atoms: _443  and  _444
REMARK  189  A    between atoms: _447  and  _449
REMARK  190  A    between atoms: _449  and  _450
REMARK  191  A    between atoms: _449  and  _452
REMARK  192  A    between atoms: _452  and  _453
REMARK  193  A    between atoms: _458  and  _460
REMARK  194  A    between atoms: _460  and  _461
REMARK  195  A    between atoms: _460  and  _463
REMARK  196  A    between atoms: _463  and  _464
REMARK  197  A    between atoms: _470  and  _472
REMARK  198  A    between atoms: _472  and  _473
REMARK  199  A    between atoms: _472  and  _475
REMARK  200  A    between atoms: _478  and  _480
REMARK  201  A    between atoms: _480  and  _481
REMARK  202  A    between atoms: _480  and  _483
REMARK  203  A    between atoms: _486  and  _488
REMARK  204  A    between atoms: _488  and  _489
REMARK  205  A    between atoms: _491  and  _493
REMARK  206  A    between atoms: _493  and  _494
REMARK  207  A    between atoms: _493  and  _496
REMARK  208  A    between atoms: _496  and  _497
REMARK  209  A    between atoms: _499  and  _501
REMARK  210  A    between atoms: _501  and  _502
REMARK  211  A    between atoms: _501  and  _504
REMARK  212  A    between atoms: _504  and  _505
REMARK  213  A    between atoms: _508  and  _510
REMARK  214  A    between atoms: _510  and  _511
REMARK  215  A    between atoms: _510  and  _513
REMARK  216  A    between atoms: _513  and  _514
REMARK  217  A    between atoms: _514  and  _515
REMARK  218  A    between atoms: _515  and  MG_622
REMARK  219  A    between atoms: _517  and  _519
REMARK  220  A    between atoms: _519  and  _520
REMARK  221  A    between atoms: _519  and  _522
REMARK  222  A    between atoms: _522  and  _523
REMARK  223  A    between atoms: _528  and  _529
REMARK  224  A    between atoms: _531  and  _533
REMARK  225  A    between atoms: _533  and  _534
REMARK  226  A    between atoms: _533  and  _536
REMARK  227  A    between atoms: _536  and  _537
REMARK  228  A    between atoms: _542  and  _544
REMARK  229  A    between atoms: _544  and  _545
REMARK  230  A    between atoms: _544  and  _547
REMARK  231  A    between atoms: _547  and  _548
REMARK  232  A    between atoms: _548  and  _549
REMARK  233  A    between atoms: _552  and  _554
REMARK  234  A    between atoms: _554  and  _555
REMARK  235  A    between atoms: _554  and  _557
REMARK  236  A    between atoms: _557  and  _558
REMARK  237  A    between atoms: _561  and  _563
REMARK  238  A    between atoms: _563  and  _564
REMARK  239  A    between atoms: _563  and  _566
REMARK  240  A    between atoms: _566  and  _567
REMARK  241  A    between atoms: _567  and  _568
REMARK  242  A    between atoms: _568  and  _569
REMARK  243  A    between atoms: _578  and  _580
REMARK  244  A    between atoms: _580  and  _581
REMARK  245  A    between atoms: _580  and  _583
REMARK  246  A    between atoms: _585  and  _587
REMARK  247  A    between atoms: _587  and  _588
REMARK  248  A    between atoms: _587  and  _590
REMARK  249  A    between atoms: _592  and  _594
REMARK  250  A    between atoms: _594  and  _595
REMARK  251  A    between atoms: _594  and  _597
REMARK  252  A    between atoms: _597  and  _598
REMARK  253  A    between atoms: _601  and  _603
REMARK  254  A    between atoms: _603  and  _604
REMARK  255  A    between atoms: _603  and  _606
REMARK  256  A    between atoms: _609  and  _611
REMARK  257  A    between atoms: _611  and  _612
REMARK  258  A    between atoms: _611  and  _614
REMARK  259  A    between atoms: _614  and  _615
REMARK  260  A    between atoms: _615  and  _616
REMARK  261  A    between atoms: _616  and  _617
REMARK  262  A    between atoms: _617  and  _618
REMARK                            x       y       z     vdW  Elec       q    Type
REMARK                         _______ _______ _______ _____ _____    ______ ____
ROOT
ATOM      1  CA  THR A   1      75.145  39.837  74.910  0.00  0.00    +0.160 C 
ENDROOT
BRANCH   1   2
ATOM      2  N   THR A   1      74.611  41.178  74.710  0.00  0.00    -0.237 NA
ATOM      3  H   THR A   1      74.059  41.368  73.849  0.00  0.00    +0.142 HD
ENDBRANCH   1   2
BRANCH   1   4
ATOM      4  CB  THR A   1      74.030  38.785  75.157  0.00  0.00    +0.134 C 
ATOM      5  CG2 THR A   1      72.805  39.034  74.284  0.00  0.00    +0.034 C 
BRANCH   4   6
ATOM      6  OG1 THR A   1      74.528  37.467  74.884  0.00  0.00    -0.383 OA
ATOM      7  HG1 THR A   1      73.810  36.804  75.044  0.00  0.00    +0.210 HD
ENDBRANCH   4   6
ENDBRANCH   1   4
BRANCH   1   8
ATOM      8  C   THR A   1      75.974  39.450  73.690  0.00  0.00    +0.227 C 
ATOM      9  O   THR A   1      75.653  39.828  72.573  0.00  0.00    -0.287 OA
ENDBRANCH   1   8
TORSDOF 4
REMARK  Name = ../refined-set-2016/3ozg/3ozg_pocket.pdb
REMARK  262 active torsions:
REMARK  status: ('A' for Active; 'I' for Inactive)
REMARK    1  A    between atoms: _1  and  _3
REMARK    2  A    between atoms: _3  and  _4
REMARK    3  A    between atoms: _3  and  _6
REMARK    4  A    between atoms: _6  and  _7
REMARK    5  A    between atoms: _10  and  _12
REMARK    6  A    between atoms: _12  and  _13
REMARK    7  A    between atoms: _12  and  _15
REMARK    8  A    between atoms: _15  and  _16
REMARK    9  A    between atoms: _19  and  _21
REMARK   10  A    between atoms: _21  and  _22
REMARK   11  A    between atoms: _21  and  _24
REMARK   12  A    between atoms: _24  and  _25
REMARK   13  A    between atoms: _25  and  _26
REMARK   14  A    between atoms: _26  and  _27
REMARK   15  A    between atoms: _27  and  _28
REMARK   16  A    between atoms: _32  and  _34
REMARK   17  A    between atoms: _34  and  _35
REMARK   18  A    between atoms: _37  and  _39
REMARK   19  A    between atoms: _39  and  _40
REMARK   20  A    between atoms: _39  and  _42
REMARK   21  A    between atoms: _42  and  _43
REMARK   22  A    between atoms: _45  and  _47
REMARK   23  A    between atoms: _47  and  _48
REMARK   24  A    between atoms: _47  and  _50
REMARK   25  A    between atoms: _50  and  _51
REMARK   26  A    between atoms: _51  and  _52
REMARK   27  A    between atoms: _52  and  _53
REMARK   28  A    between atoms: _62  and  _64
REMARK   29  A    between atoms: _64  and  _65
REMARK   30  A    between atoms: _64  and  _67
REMARK   31  A    between atoms: _67  and  _68
REMARK   32  A    between atoms: _68  and  _69
REMARK   33  A    between atoms: _69  and  _70
REMARK   34  A    between atoms: _79  and  _81
REMARK   35  A    between atoms: _81  and  _82
REMARK   36  A    between atoms: _81  and  _84
REMARK   37  A    between atoms: _87  and  _89
REMARK   38  A    between atoms: _89  and  _90
REMARK   39  A    between atoms: _89  and  _92
REMARK   40  A    between atoms: _92  and  _93
REMARK   41  A    between atoms: _93  and  _94
REMARK   42  A    between atoms: _94  and  _95
REMARK   43  A    between atoms: _95  and  _96
REMARK   44  A    between atoms: _100  and  _102
REMARK   45  A    between atoms: _102  and  _103
REMARK   46  A    between atoms: _102  and  _105
REMARK   47  A    between atoms: _105  and  _106
REMARK   48  A    between atoms: _108  and  _110
REMARK   49  A    between atoms: _110  and  _111
REMARK   50  A    between atoms: _110  and  _113
REMARK   51  A    between atoms: _113  and  _114
REMARK   52  A    between atoms: _119  and  _120
REMARK   53  A    between atoms: _122  and  _124
REMARK   54  A    between atoms: _124  and  _125
REMARK   55  A    between atoms: _124  and  _127
REMARK   56  A    between atoms: _129  and  _131
REMARK   57  A    between atoms: _131  and  _132
REMARK   58  A    between atoms: _131  and  _134
REMARK   59  A    between atoms: _134  and  _135
REMARK   60  A    between atoms: _140  and  _142
REMARK   61  A    between atoms: _142  and  _143
REMARK   62  A    between atoms: _142  and  _145
REMARK   63  A    between atoms: _145  and  _146
REMARK   64  A    between atoms: _149  and  _151
REMARK   65  A    between atoms: _151  and  _152
REMARK   66  A    between atoms: _151  and  _154
REMARK   67  A    between atoms: _154  and  _155
REMARK   68  A    between atoms: _155  and  _156
REMARK   69  A    between atoms: _161  and  _163
REMARK   70  A    between atoms: _163  and  _164
REMARK   71  A    between atoms: _163  and  _166
REMARK   72  A    between atoms: _166  and  _167
REMARK   73  A    between atoms: _169  and  _171
REMARK   74  A    between atoms: _171  and  _172
REMARK   75  A    between atoms: _171  and  _174
REMARK   76  A    between atoms: _174  and  _175
REMARK   77  A    between atoms: _178  and  _180
REMARK   78  A    between atoms: _180  and  _181
REMARK   79  A    between atoms: _183  and  _185
REMARK   80  A    between atoms: _185  and  _186
REMARK   81  A    between atoms: _185  and  _188
REMARK   82  A    between atoms: _188  and  _189
REMARK   83  A    between atoms: _192  and  _194
REMARK   84  A    between atoms: _194  and  _195
REMARK   85  A    between atoms: _194  and  _197
REMARK   86  A    between atoms: _197  and  _198
REMARK   87  A    between atoms: _201  and  _203
REMARK   88  A    between atoms: _203  and  _204
REMARK   89  A    between atoms: _203  and  _206
REMARK   90  A    between atoms: _209  and  _211
REMARK   91  A    between atoms: _211  and  _212
REMARK   92  A    between atoms: _211  and  _214
REMARK   93  A    between atoms: _214  and  _215
REMARK   94  A    between atoms: _215  and  _216
REMARK   95  A    between atoms: _219  and  _221
REMARK   96  A    between atoms: _221  and  _222
REMARK   97  A    between atoms: _221  and  _224
REMARK   98  A    between atoms: _224  and  _225
REMARK   99  A    between atoms: _228  and  _230
REMARK  100  A    between atoms: _230  and  _231
REMARK  101  A    between atoms: _230  and  _233
REMARK  102  A    between atoms: _233  and  _234
REMARK  103  A    between atoms: _237  and  _239
REMARK  104  A    between atoms: _239  and  _240
REMARK  105  A    between atoms: _239  and  _242
REMARK  106  A    between atoms: _242  and  _243
REMARK  107  A    between atoms: _246  and  _248
REMARK  108  A    between atoms: _248  and  _249
REMARK  109  A    between atoms: _248  and  _251
REMARK  110  A    between atoms: _251  and  _252
REMARK  111  A    between atoms: _255  and  _257
REMARK  112  A    between atoms: _257  and  _258
REMARK  113  A    between atoms: _257  and  _260
REMARK  114  A    between atoms: _260  and  _261
REMARK  115  A    between atoms: _264  and  _266
REMARK  116  A    between atoms: _266  and  _267
REMARK  117  A    between atoms: _269  and  _271
REMARK  118  A    between atoms: _271  and  _272
REMARK  119  A    between atoms: _271  and  _274
REMARK  120  A    between atoms: _274  and  _275
REMARK  121  A    between atoms: _275  and  _276
REMARK  122  A    between atoms: _276  and  _277
REMARK  123  A    between atoms: _277  and  _278
REMARK  124  A    between atoms: _282  and  _284
REMARK  125  A    between atoms: _284  and  _285
REMARK  126  A    between atoms: _284  and  _287
REMARK  127  A    between atoms: _287  and  _288
REMARK  128  A    between atoms: _291  and  _293
REMARK  129  A    between atoms: _293  and  _294
REMARK  130  A    between atoms: _293  and  _296
REMARK  131  A    between atoms: _296  and  _297
REMARK  132  A    between atoms: _300  and  _302
REMARK  133  A    between atoms: _302  and  _303
REMARK  134  A    between atoms: _302  and  _305
REMARK  135  A    between atoms: _308  and  _310
REMARK  136  A    between atoms: _310  and  _311
REMARK  137  A    between atoms: _310  and  _313
REMARK  138  A    between atoms: _313  and  _314
REMARK  139  A    between atoms: _314  and  _315
REMARK  140  A    between atoms: _315  and  _316
REMARK  141  A    between atoms: _316  and  _317
REMARK  142  A    between atoms: _321  and  _323
REMARK  143  A    between atoms: _323  and  _324
REMARK  144  A    between atoms: _323  and  _326
REMARK  145  A    between atoms: _326  and  _327
REMARK  146  A    between atoms: _333  and  _335
REMARK  147  A    between atoms: _335  and  _336
REMARK  148  A    between atoms: _335  and  _338
REMARK  149  A    between atoms: _340  and  _342
REMARK  150  A    between atoms: _342  and  _343
REMARK  151  A    between atoms: _342  and  _345
REMARK  152  A    between atoms: _345  and  _346
REMARK  153  A    between atoms: _352  and  _354
REMARK  154  A    between atoms: _354  and  _355
REMARK  155  A    between atoms: _354  and  _357
REMARK  156  A    between atoms: _357  and  _358
REMARK  157  A    between atoms: _358  and  _359
REMARK  158  A    between atoms: _359  and  _360
REMARK  159  A    between atoms: _360  and  _361
REMARK  160  A    between atoms: _365  and  _367
REMARK  161  A    between atoms: _367  and  _368
REMARK  162  A    between atoms: _367  and  _370
REMARK  163  A    between atoms: _370  and  _371
REMARK  164  A    between atoms: _374  and  _376
REMARK  165  A    between atoms: _376  and  _377
REMARK  166  A    between atoms: _376  and  _379
REMARK  167  A    between atoms: _379  and  _380
REMARK  168  A    between atoms: _383  and  _385
REMARK  169  A    between atoms: _385  and  _386
REMARK  170  A    between atoms: _385  and  _388
REMARK  171  A    between atoms: _388  and  _389
REMARK  172  A    between atoms: _399  and  _401
REMARK  173  A    between atoms: _401  and  _402
REMARK  174  A    between atoms: _401  and  _404
REMARK  175  A    between atoms: _404  and  _405
REMARK  176  A    between atoms: _410  and  _412
REMARK  177  A    between atoms: _412  and  _413
REMARK  178  A    between atoms: _412  and  _415
REMARK  179  A    between atoms: _415  and  _416
REMARK  180  A    between atoms: _422  and  _424
REMARK  181  A    between atoms: _424  and  _425
REMARK  182  A    between atoms: _424  and  _427
REMARK  183  A    between atoms: _427  and  _428
REMARK  184  A    between atoms: _432  and  _433
REMARK  185  A    between atoms: _438  and  _440
REMARK  186  A    between atoms: _440  and  _441
REMARK  187  A    between atoms: _440  and  _443
REMARK  188  A    between atoms: _443  and  _444
REMARK  189  A    between atoms: _447  and  _449
REMARK  190  A    between atoms: _449  and  _450
REMARK  191  A    between atoms: _449  and  _452
REMARK  192  A    between atoms: _452  and  _453
REMARK  193  A    between atoms: _458  and  _460
REMARK  194  A    between atoms: _460  and  _461
REMARK  195  A    between atoms: _460  and  _463
REMARK  196  A    between atoms: _463  and  _464
REMARK  197  A    between atoms: _470  and  _472
REMARK  198  A    between atoms: _472  and  _473
REMARK  199  A    between atoms: _472  and  _475
REMARK  200  A    between atoms: _478  and  _480
REMARK  201  A    between atoms: _480  and  _481
REMARK  202  A    between atoms: _480  and  _483
REMARK  203  A    between atoms: _486  and  _488
REMARK  204  A    between atoms: _488  and  _489
REMARK  205  A    between atoms: _491  and  _493
REMARK  206  A    between atoms: _493  and  _494
REMARK  207  A    between atoms: _493  and  _496
REMARK  208  A    between atoms: _496  and  _497
REMARK  209  A    between atoms: _499  and  _501
REMARK  210  A    between atoms: _501  and  _502
REMARK  211  A    between atoms: _501  and  _504
REMARK  212  A    between atoms: _504  and  _505
REMARK  213  A    between atoms: _508  and  _510
REMARK  214  A    between atoms: _510  and  _511
REMARK  215  A    between atoms: _510  and  _513
REMARK  216  A    between atoms: _513  and  _514
REMARK  217  A    between atoms: _514  and  _515
REMARK  218  A    between atoms: _515  and  MG_622
REMARK  219  A    between atoms: _517  and  _519
REMARK  220  A    between atoms: _519  and  _520
REMARK  221  A    between atoms: _519  and  _522
REMARK  222  A    between atoms: _522  and  _523
REMARK  223  A    between atoms: _528  and  _529
REMARK  224  A    between atoms: _531  and  _533
REMARK  225  A    between atoms: _533  and  _534
REMARK  226  A    between atoms: _533  and  _536
REMARK  227  A    between atoms: _536  and  _537
REMARK  228  A    between atoms: _542  and  _544
REMARK  229  A    between atoms: _544  and  _545
REMARK  230  A    between atoms: _544  and  _547
REMARK  231  A    between atoms: _547  and  _548
REMARK  232  A    between atoms: _548  and  _549
REMARK  233  A    between atoms: _552  and  _554
REMARK  234  A    between atoms: _554  and  _555
REMARK  235  A    between atoms: _554  and  _557
REMARK  236  A    between atoms: _557  and  _558
REMARK  237  A    between atoms: _561  and  _563
REMARK  238  A    between atoms: _563  and  _564
REMARK  239  A    between atoms: _563  and  _566
REMARK  240  A    between atoms: _566  and  _567
REMARK  241  A    between atoms: _567  and  _568
REMARK  242  A    between atoms: _568  and  _569
REMARK  243  A    between atoms: _578  and  _580
REMARK  244  A    between atoms: _580  and  _581
REMARK  245  A    between atoms: _580  and  _583
REMARK  246  A    between atoms: _585  and  _587
REMARK  247  A    between atoms: _587  and  _588
REMARK  248  A    between atoms: _587  and  _590
REMARK  249  A    between atoms: _592  and  _594
REMARK  250  A    between atoms: _594  and  _595
REMARK  251  A    between atoms: _594  and  _597
REMARK  252  A    between atoms: _597  and  _598
REMARK  253  A    between atoms: _601  and  _603
REMARK  254  A    between atoms: _603  and  _604
REMARK  255  A    between atoms: _603  and  _606
REMARK  256  A    between atoms: _609  and  _611
REMARK  257  A    between atoms: _611  and  _612
REMARK  258  A    between atoms: _611  and  _614
REMARK  259  A    between atoms: _614  and  _615
REMARK  260  A    between atoms: _615  and  _616
REMARK  261  A    between atoms: _616  and  _617
REMARK  262  A    between atoms: _617  and  _618
REMARK                            x       y       z     vdW  Elec       q    Type
REMARK                         _______ _______ _______ _____ _____    ______ ____
ROOT
ATOM      1  CA  TRP A   2      73.373  38.441  69.648  0.00  0.00    +0.153 C 
ENDROOT
BRANCH   1   3
ATOM      2  C   LEU A   1      74.228  36.388  70.647  0.00  0.00    +0.238 C 
ATOM      3  N   TRP A   2      74.293  37.707  70.531  0.00  0.00    -0.297 N 
ATOM      4  H   TRP A   2      75.007  38.233  71.074  0.00  0.00    +0.150 HD
ATOM      5  O   LEU A   1      73.467  35.718  69.957  0.00  0.00    -0.274 OA
BRANCH   2   6
ATOM      6  CA  LEU A   1      75.139  35.712  71.694  0.00  0.00    +0.145 C 
BRANCH   6   7
ATOM      7  N   LEU A   1      76.010  36.641  72.431  0.00  0.00    -0.238 NA
ATOM      8  H   LEU A   1      75.763  36.875  73.414  0.00  0.00    +0.142 HD
ENDBRANCH   6   7
BRANCH   6   9
ATOM      9  CB  LEU A   1      74.278  34.899  72.670  0.00  0.00    +0.026 C 
BRANCH   9  10
ATOM     10  CG  LEU A   1      74.926  34.123  73.820  0.00  0.00    +0.002 C 
ATOM     11  CD2 LEU A   1      73.843  33.421  74.644  0.00  0.00    +0.000 C 
ATOM     12  CD1 LEU A   1      75.959  33.110  73.304  0.00  0.00    +0.000 C 
ENDBRANCH   9  10
ENDBRANCH   6   9
ENDBRANCH   2   6
ENDBRANCH   1   3
BRANCH   1  13
ATOM     13  C   TRP A   2      73.768  38.304  68.176  0.00  0.00    +0.241 C 
ATOM     14  O   TRP A   2      74.951  38.435  67.830  0.00  0.00    -0.273 OA
ATOM     15  N   ASN A   3      72.774  38.042  67.323  0.00  0.00    -0.298 N 
ATOM     16  H   ASN A   3      71.799  38.004  67.684  0.00  0.00    +0.150 HD
BRANCH  15  17
ATOM     17  CA  ASN A   3      73.010  37.806  65.894  0.00  0.00    +0.146 C 
BRANCH  17  18
ATOM     18  C   ASN A   3      73.014  39.062  65.033  0.00  0.00    +0.227 C 
ATOM     19  O   ASN A   3      73.260  38.996  63.824  0.00  0.00    -0.286 OA
ENDBRANCH  17  18
BRANCH  17  20
ATOM     20  CB  ASN A   3      72.023  36.780  65.347  0.00  0.00    +0.112 C 
BRANCH  20  21
ATOM     21  CG  ASN A   3      70.575  37.241  65.454  0.00  0.00    +0.222 C 
ATOM     22  OD1 ASN A   3      70.294  38.423  65.709  0.00  0.00    -0.275 OA
ATOM     23  ND2 ASN A   3      69.644  36.299  65.279  0.00  0.00    -0.329 N 
ATOM     24 HD21 ASN A   3      68.636  36.544  65.355  0.00  0.00    +0.145 HD
ATOM     25 HD22 ASN A   3      69.927  35.321  65.067  0.00  0.00    +0.145 HD
ENDBRANCH  20  21
ENDBRANCH  17  20
ENDBRANCH  15  17
ENDBRANCH   1  13
BRANCH   1  26
ATOM     26  CB  TRP A   2      73.338  39.910  70.060  0.00  0.00    +0.057 C 
BRANCH  26  27
ATOM     27  CG  TRP A   2      72.468  40.804  69.247  0.00  0.00    -0.002 A 
ATOM     28  CD1 TRP A   2      71.113  40.690  69.044  0.00  0.00    +0.068 A 
ATOM     29  NE1 TRP A   2      70.658  41.738  68.266  0.00  0.00    -0.352 N 
ATOM     30  HE1 TRP A   2      69.674  41.886  67.963  0.00  0.00    +0.166 HD
ATOM     31  CE2 TRP A   2      71.720  42.550  67.961  0.00  0.00    +0.056 A 
ATOM     32  CZ2 TRP A   2      71.768  43.729  67.202  0.00  0.00    +0.017 A 
ATOM     33  CH2 TRP A   2      72.987  44.339  67.051  0.00  0.00    +0.001 A 
ATOM     34  CZ3 TRP A   2      74.152  43.809  67.640  0.00  0.00    +0.000 A 
ATOM     35  CE3 TRP A   2      74.107  42.642  68.406  0.00  0.00    +0.001 A 
ATOM     36  CD2 TRP A   2      72.877  41.988  68.563  0.00  0.00    +0.013 A 
ENDBRANCH  26  27
ENDBRANCH   1  26
TORSDOF 12
REMARK  Name = ../refined-set-2016/3ozg/3ozg_pocket.pdb
REMARK  262 active torsions:
REMARK  status: ('A' for Active; 'I' for Inactive)
REMARK    1  A    between atoms: _1  and  _3
REMARK    2  A    between atoms: _3  and  _4
REMARK    3  A    between atoms: _3  and  _6
REMARK    4  A    between atoms: _6  and  _7
REMARK    5  A    between atoms: _10  and  _12
REMARK    6  A    between atoms: _12  and  _13
REMARK    7  A    between atoms: _12  and  _15
REMARK    8  A    between atoms: _15  and  _16
REMARK    9  A    between atoms: _19  and  _21
REMARK   10  A    between atoms: _21  and  _22
REMARK   11  A    between atoms: _21  and  _24
REMARK   12  A    between atoms: _24  and  _25
REMARK   13  A    between atoms: _25  and  _26
REMARK   14  A    between atoms: _26  and  _27
REMARK   15  A    between atoms: _27  and  _28
REMARK   16  A    between atoms: _32  and  _34
REMARK   17  A    between atoms: _34  and  _35
REMARK   18  A    between atoms: _37  and  _39
REMARK   19  A    between atoms: _39  and  _40
REMARK   20  A    between atoms: _39  and  _42
REMARK   21  A    between atoms: _42  and  _43
REMARK   22  A    between atoms: _45  and  _47
REMARK   23  A    between atoms: _47  and  _48
REMARK   24  A    between atoms: _47  and  _50
REMARK   25  A    between atoms: _50  and  _51
REMARK   26  A    between atoms: _51  and  _52
REMARK   27  A    between atoms: _52  and  _53
REMARK   28  A    between atoms: _62  and  _64
REMARK   29  A    between atoms: _64  and  _65
REMARK   30  A    between atoms: _64  and  _67
REMARK   31  A    between atoms: _67  and  _68
REMARK   32  A    between atoms: _68  and  _69
REMARK   33  A    between atoms: _69  and  _70
REMARK   34  A    between atoms: _79  and  _81
REMARK   35  A    between atoms: _81  and  _82
REMARK   36  A    between atoms: _81  and  _84
REMARK   37  A    between atoms: _87  and  _89
REMARK   38  A    between atoms: _89  and  _90
REMARK   39  A    between atoms: _89  and  _92
REMARK   40  A    between atoms: _92  and  _93
REMARK   41  A    between atoms: _93  and  _94
REMARK   42  A    between atoms: _94  and  _95
REMARK   43  A    between atoms: _95  and  _96
REMARK   44  A    between atoms: _100  and  _102
REMARK   45  A    between atoms: _102  and  _103
REMARK   46  A    between atoms: _102  and  _105
REMARK   47  A    between atoms: _105  and  _106
REMARK   48  A    between atoms: _108  and  _110
REMARK   49  A    between atoms: _110  and  _111
REMARK   50  A    between atoms: _110  and  _113
REMARK   51  A    between atoms: _113  and  _114
REMARK   52  A    between atoms: _119  and  _120
REMARK   53  A    between atoms: _122  and  _124
REMARK   54  A    between atoms: _124  and  _125
REMARK   55  A    between atoms: _124  and  _127
REMARK   56  A    between atoms: _129  and  _131
REMARK   57  A    between atoms: _131  and  _132
REMARK   58  A    between atoms: _131  and  _134
REMARK   59  A    between atoms: _134  and  _135
REMARK   60  A    between atoms: _140  and  _142
REMARK   61  A    between atoms: _142  and  _143
REMARK   62  A    between atoms: _142  and  _145
REMARK   63  A    between atoms: _145  and  _146
REMARK   64  A    between atoms: _149  and  _151
REMARK   65  A    between atoms: _151  and  _152
REMARK   66  A    between atoms: _151  and  _154
REMARK   67  A    between atoms: _154  and  _155
REMARK   68  A    between atoms: _155  and  _156
REMARK   69  A    between atoms: _161  and  _163
REMARK   70  A    between atoms: _163  and  _164
REMARK   71  A    between atoms: _163  and  _166
REMARK   72  A    between atoms: _166  and  _167
REMARK   73  A    between atoms: _169  and  _171
REMARK   74  A    between atoms: _171  and  _172
REMARK   75  A    between atoms: _171  and  _174
REMARK   76  A    between atoms: _174  and  _175
REMARK   77  A    between atoms: _178  and  _180
REMARK   78  A    between atoms: _180  and  _181
REMARK   79  A    between atoms: _183  and  _185
REMARK   80  A    between atoms: _185  and  _186
REMARK   81  A    between atoms: _185  and  _188
REMARK   82  A    between atoms: _188  and  _189
REMARK   83  A    between atoms: _192  and  _194
REMARK   84  A    between atoms: _194  and  _195
REMARK   85  A    between atoms: _194  and  _197
REMARK   86  A    between atoms: _197  and  _198
REMARK   87  A    between atoms: _201  and  _203
REMARK   88  A    between atoms: _203  and  _204
REMARK   89  A    between atoms: _203  and  _206
REMARK   90  A    between atoms: _209  and  _211
REMARK   91  A    between atoms: _211  and  _212
REMARK   92  A    between atoms: _211  and  _214
REMARK   93  A    between atoms: _214  and  _215
REMARK   94  A    between atoms: _215  and  _216
REMARK   95  A    between atoms: _219  and  _221
REMARK   96  A    between atoms: _221  and  _222
REMARK   97  A    between atoms: _221  and  _224
REMARK   98  A    between atoms: _224  and  _225
REMARK   99  A    between atoms: _228  and  _230
REMARK  100  A    between atoms: _230  and  _231
REMARK  101  A    between atoms: _230  and  _233
REMARK  102  A    between atoms: _233  and  _234
REMARK  103  A    between atoms: _237  and  _239
REMARK  104  A    between atoms: _239  and  _240
REMARK  105  A    between atoms: _239  and  _242
REMARK  106  A    between atoms: _242  and  _243
REMARK  107  A    between atoms: _246  and  _248
REMARK  108  A    between atoms: _248  and  _249
REMARK  109  A    between atoms: _248  and  _251
REMARK  110  A    between atoms: _251  and  _252
REMARK  111  A    between atoms: _255  and  _257
REMARK  112  A    between atoms: _257  and  _258
REMARK  113  A    between atoms: _257  and  _260
REMARK  114  A    between atoms: _260  and  _261
REMARK  115  A    between atoms: _264  and  _266
REMARK  116  A    between atoms: _266  and  _267
REMARK  117  A    between atoms: _269  and  _271
REMARK  118  A    between atoms: _271  and  _272
REMARK  119  A    between atoms: _271  and  _274
REMARK  120  A    between atoms: _274  and  _275
REMARK  121  A    between atoms: _275  and  _276
REMARK  122  A    between atoms: _276  and  _277
REMARK  123  A    between atoms: _277  and  _278
REMARK  124  A    between atoms: _282  and  _284
REMARK  125  A    between atoms: _284  and  _285
REMARK  126  A    between atoms: _284  and  _287
REMARK  127  A    between atoms: _287  and  _288
REMARK  128  A    between atoms: _291  and  _293
REMARK  129  A    between atoms: _293  and  _294
REMARK  130  A    between atoms: _293  and  _296
REMARK  131  A    between atoms: _296  and  _297
REMARK  132  A    between atoms: _300  and  _302
REMARK  133  A    between atoms: _302  and  _303
REMARK  134  A    between atoms: _302  and  _305
REMARK  135  A    between atoms: _308  and  _310
REMARK  136  A    between atoms: _310  and  _311
REMARK  137  A    between atoms: _310  and  _313
REMARK  138  A    between atoms: _313  and  _314
REMARK  139  A    between atoms: _314  and  _315
REMARK  140  A    between atoms: _315  and  _316
REMARK  141  A    between atoms: _316  and  _317
REMARK  142  A    between atoms: _321  and  _323
REMARK  143  A    between atoms: _323  and  _324
REMARK  144  A    between atoms: _323  and  _326
REMARK  145  A    between atoms: _326  and  _327
REMARK  146  A    between atoms: _333  and  _335
REMARK  147  A    between atoms: _335  and  _336
REMARK  148  A    between atoms: _335  and  _338
REMARK  149  A    between atoms: _340  and  _342
REMARK  150  A    between atoms: _342  and  _343
REMARK  151  A    between atoms: _342  and  _345
REMARK  152  A    between atoms: _345  and  _346
REMARK  153  A    between atoms: _352  and  _354
REMARK  154  A    between atoms: _354  and  _355
REMARK  155  A    between atoms: _354  and  _357
REMARK  156  A    between atoms: _357  and  _358
REMARK  157  A    between atoms: _358  and  _359
REMARK  158  A    between atoms: _359  and  _360
REMARK  159  A    between atoms: _360  and  _361
REMARK  160  A    between atoms: _365  and  _367
REMARK  161  A    between atoms: _367  and  _368
REMARK  162  A    between atoms: _367  and  _370
REMARK  163  A    between atoms: _370  and  _371
REMARK  164  A    between atoms: _374  and  _376
REMARK  165  A    between atoms: _376  and  _377
REMARK  166  A    between atoms: _376  and  _379
REMARK  167  A    between atoms: _379  and  _380
REMARK  168  A    between atoms: _383  and  _385
REMARK  169  A    between atoms: _385  and  _386
REMARK  170  A    between atoms: _385  and  _388
REMARK  171  A    between atoms: _388  and  _389
REMARK  172  A    between atoms: _399  and  _401
REMARK  173  A    between atoms: _401  and  _402
REMARK  174  A    between atoms: _401  and  _404
REMARK  175  A    between atoms: _404  and  _405
REMARK  176  A    between atoms: _410  and  _412
REMARK  177  A    between atoms: _412  and  _413
REMARK  178  A    between atoms: _412  and  _415
REMARK  179  A    between atoms: _415  and  _416
REMARK  180  A    between atoms: _422  and  _424
REMARK  181  A    between atoms: _424  and  _425
REMARK  182  A    between atoms: _424  and  _427
REMARK  183  A    between atoms: _427  and  _428
REMARK  184  A    between atoms: _432  and  _433
REMARK  185  A    between atoms: _438  and  _440
REMARK  186  A    between atoms: _440  and  _441
REMARK  187  A    between atoms: _440  and  _443
REMARK  188  A    between atoms: _443  and  _444
REMARK  189  A    between atoms: _447  and  _449
REMARK  190  A    between atoms: _449  and  _450
REMARK  191  A    between atoms: _449  and  _452
REMARK  192  A    between atoms: _452  and  _453
REMARK  193  A    between atoms: _458  and  _460
REMARK  194  A    between atoms: _460  and  _461
REMARK  195  A    between atoms: _460  and  _463
REMARK  196  A    between atoms: _463  and  _464
REMARK  197  A    between atoms: _470  and  _472
REMARK  198  A    between atoms: _472  and  _473
REMARK  199  A    between atoms: _472  and  _475
REMARK  200  A    between atoms: _478  and  _480
REMARK  201  A    between atoms: _480  and  _481
REMARK  202  A    between atoms: _480  and  _483
REMARK  203  A    between atoms: _486  and  _488
REMARK  204  A    between atoms: _488  and  _489
REMARK  205  A    between atoms: _491  and  _493
REMARK  206  A    between atoms: _493  and  _494
REMARK  207  A    between atoms: _493  and  _496
REMARK  208  A    between atoms: _496  and  _497
REMARK  209  A    between atoms: _499  and  _501
REMARK  210  A    between atoms: _501  and  _502
REMARK  211  A    between atoms: _501  and  _504
REMARK  212  A    between atoms: _504  and  _505
REMARK  213  A    between atoms: _508  and  _510
REMARK  214  A    between atoms: _510  and  _511
REMARK  215  A    between atoms: _510  and  _513
REMARK  216  A    between atoms: _513  and  _514
REMARK  217  A    between atoms: _514  and  _515
REMARK  218  A    between atoms: _515  and  MG_622
REMARK  219  A    between atoms: _517  and  _519
REMARK  220  A    between atoms: _519  and  _520
REMARK  221  A    between atoms: _519  and  _522
REMARK  222  A    between atoms: _522  and  _523
REMARK  223  A    between atoms: _528  and  _529
REMARK  224  A    between atoms: _531  and  _533
REMARK  225  A    between atoms: _533  and  _534
REMARK  226  A    between atoms: _533  and  _536
REMARK  227  A    between atoms: _536  and  _537
REMARK  228  A    between atoms: _542  and  _544
REMARK  229  A    between atoms: _544  and  _545
REMARK  230  A    between atoms: _544  and  _547
REMARK  231  A    between atoms: _547  and  _548
REMARK  232  A    between atoms: _548  and  _549
REMARK  233  A    between atoms: _552  and  _554
REMARK  234  A    between atoms: _554  and  _555
REMARK  235  A    between atoms: _554  and  _557
REMARK  236  A    between atoms: _557  and  _558
REMARK  237  A    between atoms: _561  and  _563
REMARK  238  A    between atoms: _563  and  _564
REMARK  239  A    between atoms: _563  and  _566
REMARK  240  A    between atoms: _566  and  _567
REMARK  241  A    between atoms: _567  and  _568
REMARK  242  A    between atoms: _568  and  _569
REMARK  243  A    between atoms: _578  and  _580
REMARK  244  A    between atoms: _580  and  _581
REMARK  245  A    between atoms: _580  and  _583
REMARK  246  A    between atoms: _585  and  _587
REMARK  247  A    between atoms: _587  and  _588
REMARK  248  A    between atoms: _587  and  _590
REMARK  249  A    between atoms: _592  and  _594
REMARK  250  A    between atoms: _594  and  _595
REMARK  251  A    between atoms: _594  and  _597
REMARK  252  A    between atoms: _597  and  _598
REMARK  253  A    between atoms: _601  and  _603
REMARK  254  A    between atoms: _603  and  _604
REMARK  255  A    between atoms: _603  and  _606
REMARK  256  A    between atoms: _609  and  _611
REMARK  257  A    between atoms: _611  and  _612
REMARK  258  A    between atoms: _611  and  _614
REMARK  259  A    between atoms: _614  and  _615
REMARK  260  A    between atoms: _615  and  _616
REMARK  261  A    between atoms: _616  and  _617
REMARK  262  A    between atoms: _617  and  _618
REMARK                            x       y       z     vdW  Elec       q    Type
REMARK                         _______ _______ _______ _____ _____    ______ ____
ROOT
ATOM      1  CB  PHE A   1      67.998  40.693  64.932  0.00  0.00    +0.051 C 
ENDROOT
BRANCH   1   2
ATOM      2  CG  PHE A   1      66.679  40.918  64.268  0.00  0.00    -0.020 A 
ATOM      3  CD2 PHE A   1      65.768  41.830  64.783  0.00  0.00    -0.004 A 
ATOM      4  CE2 PHE A   1      64.528  42.023  64.163  0.00  0.00    -0.000 A 
ATOM      5  CZ  PHE A   1      64.202  41.296  63.020  0.00  0.00    -0.000 A 
ATOM      6  CE1 PHE A   1      65.091  40.388  62.507  0.00  0.00    -0.000 A 
ATOM      7  CD1 PHE A   1      66.335  40.199  63.131  0.00  0.00    -0.004 A 
ENDBRANCH   1   2
BRANCH   1   8
ATOM      8  CA  PHE A   1      69.021  41.782  64.662  0.00  0.00    +0.137 C 
BRANCH   8   9
ATOM      9  N   PHE A   1      70.366  41.278  64.921  0.00  0.00    -0.239 NA
ATOM     10  H   PHE A   1      70.501  40.355  65.381  0.00  0.00    +0.142 HD
ENDBRANCH   8   9
BRANCH   8  11
ATOM     11  C   PHE A   1      68.731  43.035  65.516  0.00  0.00    +0.224 C 
ATOM     12  O   PHE A   1      68.663  42.975  66.765  0.00  0.00    -0.287 OA
ENDBRANCH   8  11
ENDBRANCH   1   8
TORSDOF 4
REMARK  Name = ../refined-set-2016/3ozg/3ozg_pocket.pdb
REMARK  262 active torsions:
REMARK  status: ('A' for Active; 'I' for Inactive)
REMARK    1  A    between atoms: _1  and  _3
REMARK    2  A    between atoms: _3  and  _4
REMARK    3  A    between atoms: _3  and  _6
REMARK    4  A    between atoms: _6  and  _7
REMARK    5  A    between atoms: _10  and  _12
REMARK    6  A    between atoms: _12  and  _13
REMARK    7  A    between atoms: _12  and  _15
REMARK    8  A    between atoms: _15  and  _16
REMARK    9  A    between atoms: _19  and  _21
REMARK   10  A    between atoms: _21  and  _22
REMARK   11  A    between atoms: _21  and  _24
REMARK   12  A    between atoms: _24  and  _25
REMARK   13  A    between atoms: _25  and  _26
REMARK   14  A    between atoms: _26  and  _27
REMARK   15  A    between atoms: _27  and  _28
REMARK   16  A    between atoms: _32  and  _34
REMARK   17  A    between atoms: _34  and  _35
REMARK   18  A    between atoms: _37  and  _39
REMARK   19  A    between atoms: _39  and  _40
REMARK   20  A    between atoms: _39  and  _42
REMARK   21  A    between atoms: _42  and  _43
REMARK   22  A    between atoms: _45  and  _47
REMARK   23  A    between atoms: _47  and  _48
REMARK   24  A    between atoms: _47  and  _50
REMARK   25  A    between atoms: _50  and  _51
REMARK   26  A    between atoms: _51  and  _52
REMARK   27  A    between atoms: _52  and  _53
REMARK   28  A    between atoms: _62  and  _64
REMARK   29  A    between atoms: _64  and  _65
REMARK   30  A    between atoms: _64  and  _67
REMARK   31  A    between atoms: _67  and  _68
REMARK   32  A    between atoms: _68  and  _69
REMARK   33  A    between atoms: _69  and  _70
REMARK   34  A    between atoms: _79  and  _81
REMARK   35  A    between atoms: _81  and  _82
REMARK   36  A    between atoms: _81  and  _84
REMARK   37  A    between atoms: _87  and  _89
REMARK   38  A    between atoms: _89  and  _90
REMARK   39  A    between atoms: _89  and  _92
REMARK   40  A    between atoms: _92  and  _93
REMARK   41  A    between atoms: _93  and  _94
REMARK   42  A    between atoms: _94  and  _95
REMARK   43  A    between atoms: _95  and  _96
REMARK   44  A    between atoms: _100  and  _102
REMARK   45  A    between atoms: _102  and  _103
REMARK   46  A    between atoms: _102  and  _105
REMARK   47  A    between atoms: _105  and  _106
REMARK   48  A    between atoms: _108  and  _110
REMARK   49  A    between atoms: _110  and  _111
REMARK   50  A    between atoms: _110  and  _113
REMARK   51  A    between atoms: _113  and  _114
REMARK   52  A    between atoms: _119  and  _120
REMARK   53  A    between atoms: _122  and  _124
REMARK   54  A    between atoms: _124  and  _125
REMARK   55  A    between atoms: _124  and  _127
REMARK   56  A    between atoms: _129  and  _131
REMARK   57  A    between atoms: _131  and  _132
REMARK   58  A    between atoms: _131  and  _134
REMARK   59  A    between atoms: _134  and  _135
REMARK   60  A    between atoms: _140  and  _142
REMARK   61  A    between atoms: _142  and  _143
REMARK   62  A    between atoms: _142  and  _145
REMARK   63  A    between atoms: _145  and  _146
REMARK   64  A    between atoms: _149  and  _151
REMARK   65  A    between atoms: _151  and  _152
REMARK   66  A    between atoms: _151  and  _154
REMARK   67  A    between atoms: _154  and  _155
REMARK   68  A    between atoms: _155  and  _156
REMARK   69  A    between atoms: _161  and  _163
REMARK   70  A    between atoms: _163  and  _164
REMARK   71  A    between atoms: _163  and  _166
REMARK   72  A    between atoms: _166  and  _167
REMARK   73  A    between atoms: _169  and  _171
REMARK   74  A    between atoms: _171  and  _172
REMARK   75  A    between atoms: _171  and  _174
REMARK   76  A    between atoms: _174  and  _175
REMARK   77  A    between atoms: _178  and  _180
REMARK   78  A    between atoms: _180  and  _181
REMARK   79  A    between atoms: _183  and  _185
REMARK   80  A    between atoms: _185  and  _186
REMARK   81  A    between atoms: _185  and  _188
REMARK   82  A    between atoms: _188  and  _189
REMARK   83  A    between atoms: _192  and  _194
REMARK   84  A    between atoms: _194  and  _195
REMARK   85  A    between atoms: _194  and  _197
REMARK   86  A    between atoms: _197  and  _198
REMARK   87  A    between atoms: _201  and  _203
REMARK   88  A    between atoms: _203  and  _204
REMARK   89  A    between atoms: _203  and  _206
REMARK   90  A    between atoms: _209  and  _211
REMARK   91  A    between atoms: _211  and  _212
REMARK   92  A    between atoms: _211  and  _214
REMARK   93  A    between atoms: _214  and  _215
REMARK   94  A    between atoms: _215  and  _216
REMARK   95  A    between atoms: _219  and  _221
REMARK   96  A    between atoms: _221  and  _222
REMARK   97  A    between atoms: _221  and  _224
REMARK   98  A    between atoms: _224  and  _225
REMARK   99  A    between atoms: _228  and  _230
REMARK  100  A    between atoms: _230  and  _231
REMARK  101  A    between atoms: _230  and  _233
REMARK  102  A    between atoms: _233  and  _234
REMARK  103  A    between atoms: _237  and  _239
REMARK  104  A    between atoms: _239  and  _240
REMARK  105  A    between atoms: _239  and  _242
REMARK  106  A    between atoms: _242  and  _243
REMARK  107  A    between atoms: _246  and  _248
REMARK  108  A    between atoms: _248  and  _249
REMARK  109  A    between atoms: _248  and  _251
REMARK  110  A    between atoms: _251  and  _252
REMARK  111  A    between atoms: _255  and  _257
REMARK  112  A    between atoms: _257  and  _258
REMARK  113  A    between atoms: _257  and  _260
REMARK  114  A    between atoms: _260  and  _261
REMARK  115  A    between atoms: _264  and  _266
REMARK  116  A    between atoms: _266  and  _267
REMARK  117  A    between atoms: _269  and  _271
REMARK  118  A    between atoms: _271  and  _272
REMARK  119  A    between atoms: _271  and  _274
REMARK  120  A    between atoms: _274  and  _275
REMARK  121  A    between atoms: _275  and  _276
REMARK  122  A    between atoms: _276  and  _277
REMARK  123  A    between atoms: _277  and  _278
REMARK  124  A    between atoms: _282  and  _284
REMARK  125  A    between atoms: _284  and  _285
REMARK  126  A    between atoms: _284  and  _287
REMARK  127  A    between atoms: _287  and  _288
REMARK  128  A    between atoms: _291  and  _293
REMARK  129  A    between atoms: _293  and  _294
REMARK  130  A    between atoms: _293  and  _296
REMARK  131  A    between atoms: _296  and  _297
REMARK  132  A    between atoms: _300  and  _302
REMARK  133  A    between atoms: _302  and  _303
REMARK  134  A    between atoms: _302  and  _305
REMARK  135  A    between atoms: _308  and  _310
REMARK  136  A    between atoms: _310  and  _311
REMARK  137  A    between atoms: _310  and  _313
REMARK  138  A    between atoms: _313  and  _314
REMARK  139  A    between atoms: _314  and  _315
REMARK  140  A    between atoms: _315  and  _316
REMARK  141  A    between atoms: _316  and  _317
REMARK  142  A    between atoms: _321  and  _323
REMARK  143  A    between atoms: _323  and  _324
REMARK  144  A    between atoms: _323  and  _326
REMARK  145  A    between atoms: _326  and  _327
REMARK  146  A    between atoms: _333  and  _335
REMARK  147  A    between atoms: _335  and  _336
REMARK  148  A    between atoms: _335  and  _338
REMARK  149  A    between atoms: _340  and  _342
REMARK  150  A    between atoms: _342  and  _343
REMARK  151  A    between atoms: _342  and  _345
REMARK  152  A    between atoms: _345  and  _346
REMARK  153  A    between atoms: _352  and  _354
REMARK  154  A    between atoms: _354  and  _355
REMARK  155  A    between atoms: _354  and  _357
REMARK  156  A    between atoms: _357  and  _358
REMARK  157  A    between atoms: _358  and  _359
REMARK  158  A    between atoms: _359  and  _360
REMARK  159  A    between atoms: _360  and  _361
REMARK  160  A    between atoms: _365  and  _367
REMARK  161  A    between atoms: _367  and  _368
REMARK  162  A    between atoms: _367  and  _370
REMARK  163  A    between atoms: _370  and  _371
REMARK  164  A    between atoms: _374  and  _376
REMARK  165  A    between atoms: _376  and  _377
REMARK  166  A    between atoms: _376  and  _379
REMARK  167  A    between atoms: _379  and  _380
REMARK  168  A    between atoms: _383  and  _385
REMARK  169  A    between atoms: _385  and  _386
REMARK  170  A    between atoms: _385  and  _388
REMARK  171  A    between atoms: _388  and  _389
REMARK  172  A    between atoms: _399  and  _401
REMARK  173  A    between atoms: _401  and  _402
REMARK  174  A    between atoms: _401  and  _404
REMARK  175  A    between atoms: _404  and  _405
REMARK  176  A    between atoms: _410  and  _412
REMARK  177  A    between atoms: _412  and  _413
REMARK  178  A    between atoms: _412  and  _415
REMARK  179  A    between atoms: _415  and  _416
REMARK  180  A    between atoms: _422  and  _424
REMARK  181  A    between atoms: _424  and  _425
REMARK  182  A    between atoms: _424  and  _427
REMARK  183  A    between atoms: _427  and  _428
REMARK  184  A    between atoms: _432  and  _433
REMARK  185  A    between atoms: _438  and  _440
REMARK  186  A    between atoms: _440  and  _441
REMARK  187  A    between atoms: _440  and  _443
REMARK  188  A    between atoms: _443  and  _444
REMARK  189  A    between atoms: _447  and  _449
REMARK  190  A    between atoms: _449  and  _450
REMARK  191  A    between atoms: _449  and  _452
REMARK  192  A    between atoms: _452  and  _453
REMARK  193  A    between atoms: _458  and  _460
REMARK  194  A    between atoms: _460  and  _461
REMARK  195  A    between atoms: _460  and  _463
REMARK  196  A    between atoms: _463  and  _464
REMARK  197  A    between atoms: _470  and  _472
REMARK  198  A    between atoms: _472  and  _473
REMARK  199  A    between atoms: _472  and  _475
REMARK  200  A    between atoms: _478  and  _480
REMARK  201  A    between atoms: _480  and  _481
REMARK  202  A    between atoms: _480  and  _483
REMARK  203  A    between atoms: _486  and  _488
REMARK  204  A    between atoms: _488  and  _489
REMARK  205  A    between atoms: _491  and  _493
REMARK  206  A    between atoms: _493  and  _494
REMARK  207  A    between atoms: _493  and  _496
REMARK  208  A    between atoms: _496  and  _497
REMARK  209  A    between atoms: _499  and  _501
REMARK  210  A    between atoms: _501  and  _502
REMARK  211  A    between atoms: _501  and  _504
REMARK  212  A    between atoms: _504  and  _505
REMARK  213  A    between atoms: _508  and  _510
REMARK  214  A    between atoms: _510  and  _511
REMARK  215  A    between atoms: _510  and  _513
REMARK  216  A    between atoms: _513  and  _514
REMARK  217  A    between atoms: _514  and  _515
REMARK  218  A    between atoms: _515  and  MG_622
REMARK  219  A    between atoms: _517  and  _519
REMARK  220  A    between atoms: _519  and  _520
REMARK  221  A    between atoms: _519  and  _522
REMARK  222  A    between atoms: _522  and  _523
REMARK  223  A    between atoms: _528  and  _529
REMARK  224  A    between atoms: _531  and  _533
REMARK  225  A    between atoms: _533  and  _534
REMARK  226  A    between atoms: _533  and  _536
REMARK  227  A    between atoms: _536  and  _537
REMARK  228  A    between atoms: _542  and  _544
REMARK  229  A    between atoms: _544  and  _545
REMARK  230  A    between atoms: _544  and  _547
REMARK  231  A    between atoms: _547  and  _548
REMARK  232  A    between atoms: _548  and  _549
REMARK  233  A    between atoms: _552  and  _554
REMARK  234  A    between atoms: _554  and  _555
REMARK  235  A    between atoms: _554  and  _557
REMARK  236  A    between atoms: _557  and  _558
REMARK  237  A    between atoms: _561  and  _563
REMARK  238  A    between atoms: _563  and  _564
REMARK  239  A    between atoms: _563  and  _566
REMARK  240  A    between atoms: _566  and  _567
REMARK  241  A    between atoms: _567  and  _568
REMARK  242  A    between atoms: _568  and  _569
REMARK  243  A    between atoms: _578  and  _580
REMARK  244  A    between atoms: _580  and  _581
REMARK  245  A    between atoms: _580  and  _583
REMARK  246  A    between atoms: _585  and  _587
REMARK  247  A    between atoms: _587  and  _588
REMARK  248  A    between atoms: _587  and  _590
REMARK  249  A    between atoms: _592  and  _594
REMARK  250  A    between atoms: _594  and  _595
REMARK  251  A    between atoms: _594  and  _597
REMARK  252  A    between atoms: _597  and  _598
REMARK  253  A    between atoms: _601  and  _603
REMARK  254  A    between atoms: _603  and  _604
REMARK  255  A    between atoms: _603  and  _606
REMARK  256  A    between atoms: _609  and  _611
REMARK  257  A    between atoms: _611  and  _612
REMARK  258  A    between atoms: _611  and  _614
REMARK  259  A    between atoms: _614  and  _615
REMARK  260  A    between atoms: _615  and  _616
REMARK  261  A    between atoms: _616  and  _617
REMARK  262  A    between atoms: _617  and  _618
REMARK                            x       y       z     vdW  Elec       q    Type
REMARK                         _______ _______ _______ _____ _____    ______ ____
ROOT
ATOM      1  C   HIS A   4      70.452  38.921  82.380  0.00  0.00    +0.241 C 
ATOM      2  N   PHE A   5      69.969  37.791  82.903  0.00  0.00    -0.297 N 
ATOM      3  H   PHE A   5      70.600  37.193  83.474  0.00  0.00    +0.150 HD
ATOM      4  O   HIS A   4      69.791  39.686  81.660  0.00  0.00    -0.273 OA
ENDROOT
BRANCH   2   5
ATOM      5  CA  PHE A   5      68.580  37.363  82.700  0.00  0.00    +0.153 C 
BRANCH   5   6
ATOM      6  C   PHE A   5      67.633  38.129  83.606  0.00  0.00    +0.241 C 
ATOM      7  O   PHE A   5      67.738  38.074  84.852  0.00  0.00    -0.273 OA
ATOM      8  N   VAL A   6      66.689  38.817  82.974  0.00  0.00    -0.297 N 
ATOM      9  H   VAL A   6      66.578  38.690  81.948  0.00  0.00    +0.150 HD
BRANCH   8  10
ATOM     10  CA  VAL A   6      65.805  39.742  83.665  0.00  0.00    +0.149 C 
BRANCH  10  11
ATOM     11  C   VAL A   6      64.419  39.111  83.788  0.00  0.00    +0.241 C 
ATOM     12  N   VAL A   7      63.715  39.472  84.850  0.00  0.00    -0.297 N 
ATOM     13  H   VAL A   7      64.155  40.086  85.565  0.00  0.00    +0.150 HD
ATOM     14  O   VAL A   6      64.032  38.279  82.958  0.00  0.00    -0.273 OA
BRANCH  12  15
ATOM     15  CA  VAL A   7      62.342  39.032  85.043  0.00  0.00    +0.149 C 
BRANCH  15  16
ATOM     16  C   VAL A   7      61.469  40.225  85.381  0.00  0.00    +0.241 C 
ATOM     17  O   VAL A   7      61.980  41.286  85.755  0.00  0.00    -0.273 OA
ATOM     18  N   GLY A   8      60.153  40.042  85.282  0.00  0.00    -0.296 N 
ATOM     19  H   GLY A   8      59.786  39.121  84.968  0.00  0.00    +0.150 HD
BRANCH  18  20
ATOM     20  CA  GLY A   8      59.219  41.115  85.607  0.00  0.00    +0.163 C 
BRANCH  20  21
ATOM     21  C   GLY A   8      58.651  41.811  84.382  0.00  0.00    +0.229 C 
ATOM     22  O   GLY A   8      59.066  41.536  83.259  0.00  0.00    -0.286 OA
ENDBRANCH  20  21
ENDBRANCH  18  20
ENDBRANCH  15  16
BRANCH  15  23
ATOM     23  CB  VAL A   7      62.218  37.945  86.151  0.00  0.00    +0.027 C 
ATOM     24  CG2 VAL A   7      62.903  38.422  87.437  0.00  0.00    +0.002 C 
ATOM     25  CG1 VAL A   7      62.752  36.598  85.628  0.00  0.00    +0.002 C 
ENDBRANCH  15  23
ENDBRANCH  12  15
ENDBRANCH  10  11
BRANCH  10  26
ATOM     26  CB  VAL A   6      65.723  41.135  82.940  0.00  0.00    +0.027 C 
ATOM     27  CG2 VAL A   6      67.096  41.831  82.947  0.00  0.00    +0.002 C 
ATOM     28  CG1 VAL A   6      65.224  40.997  81.509  0.00  0.00    +0.002 C 
ENDBRANCH  10  26
ENDBRANCH   8  10
ENDBRANCH   5   6
BRANCH   5  29
ATOM     29  CB  PHE A   5      68.431  35.863  82.955  0.00  0.00    +0.055 C 
BRANCH  29  30
ATOM     30  CG  PHE A   5      67.192  35.263  82.350  0.00  0.00    -0.020 A 
ATOM     31  CD2 PHE A   5      66.024  35.133  83.096  0.00  0.00    -0.004 A 
ATOM     32  CE2 PHE A   5      64.877  34.569  82.534  0.00  0.00    -0.000 A 
ATOM     33  CZ  PHE A   5      64.903  34.126  81.212  0.00  0.00    -0.000 A 
ATOM     34  CE1 PHE A   5      66.074  34.257  80.454  0.00  0.00    -0.000 A 
ATOM     35  CD1 PHE A   5      67.202  34.817  81.020  0.00  0.00    -0.004 A 
ENDBRANCH  29  30
ENDBRANCH   5  29
ENDBRANCH   2   5
BRANCH   1  36
ATOM     36  CA  HIS A   4      71.893  39.276  82.744  0.00  0.00    +0.155 C 
BRANCH  36  39
ATOM     37  C   ASP A   3      73.729  40.035  81.278  0.00  0.00    +0.241 C 
ATOM     38  O   ASP A   3      74.603  39.371  81.861  0.00  0.00    -0.273 OA
ATOM     39  N   HIS A   4      72.449  40.105  81.675  0.00  0.00    -0.297 N 
ATOM     40  H   HIS A   4      71.821  40.783  81.198  0.00  0.00    +0.150 HD
BRANCH  37  41
ATOM     41  CA  ASP A   3      74.071  40.826  80.003  0.00  0.00    +0.160 C 
BRANCH  41  43
ATOM     42  C   PRO A   2      73.242  43.082  80.304  0.00  0.00    +0.241 C 
ATOM     43  N   ASP A   3      74.271  42.250  80.244  0.00  0.00    -0.297 N 
ATOM     44  H   ASP A   3      75.236  42.618  80.371  0.00  0.00    +0.150 HD
ATOM     45  O   PRO A   2      72.068  42.703  80.229  0.00  0.00    -0.273 OA
BRANCH  42  51
ATOM     46  C   ILE A   1      71.763  45.561  79.104  0.00  0.00    +0.241 C 
ATOM     47  N   PRO A   2      72.389  45.425  80.307  0.00  0.00    -0.272 N 
ATOM     48  CD  PRO A   2      72.116  46.202  81.540  0.00  0.00    +0.094 C 
ATOM     49  CG  PRO A   2      72.968  45.550  82.582  0.00  0.00    +0.024 C 
ATOM     50  CB  PRO A   2      74.108  44.904  81.852  0.00  0.00    +0.031 C 
ATOM     51  CA  PRO A   2      73.567  44.566  80.445  0.00  0.00    +0.152 C 
ATOM     52  O   ILE A   1      72.136  44.968  78.079  0.00  0.00    -0.273 OA
BRANCH  46  53
ATOM     53  CA  ILE A   1      70.511  46.461  79.048  0.00  0.00    +0.145 C 
BRANCH  53  54
ATOM     54  CB  ILE A   1      69.303  45.730  79.660  0.00  0.00    +0.025 C 
ATOM     55  CG2 ILE A   1      68.134  46.696  79.844  0.00  0.00    +0.002 C 
BRANCH  54  56
ATOM     56  CG1 ILE A   1      68.880  44.542  78.787  0.00  0.00    +0.002 C 
ATOM     57  CD1 ILE A   1      67.794  43.663  79.448  0.00  0.00    +0.000 C 
ENDBRANCH  54  56
ENDBRANCH  53  54
BRANCH  53  58
ATOM     58  N   ILE A   1      70.207  46.970  77.701  0.00  0.00    -0.238 NA
ATOM     59  H   ILE A   1      69.979  46.301  76.938  0.00  0.00    +0.142 HD
ENDBRANCH  53  58
ENDBRANCH  46  53
ENDBRANCH  42  51
ENDBRANCH  41  43
BRANCH  41  60
ATOM     60  CB  ASP A   3      75.300  40.239  79.317  0.00  0.00    +0.143 C 
BRANCH  60  61
ATOM     61  CG  ASP A   3      75.086  38.805  78.827  0.00  0.00    +0.367 C 
ATOM     62  OD2 ASP A   3      73.971  38.229  78.981  0.00  0.00    -0.246 OA
ATOM     63  OD1 ASP A   3      76.063  38.236  78.287  0.00  0.00    -0.246 OA
ENDBRANCH  60  61
ENDBRANCH  41  60
ENDBRANCH  37  41
ENDBRANCH  36  39
BRANCH  36  64
ATOM     64  CB  HIS A   4      71.893  40.003  84.110  0.00  0.00    +0.076 C 
BRANCH  64  65
ATOM     65  CG  HIS A   4      73.247  40.421  84.579  0.00  0.00    +0.082 A 
ATOM     66  CD2 HIS A   4      74.305  39.698  85.011  0.00  0.00    +0.115 A 
ATOM     67  NE2 HIS A   4      75.316  40.583  85.289  0.00  0.00    -0.221 NA
ATOM     68  CE1 HIS A   4      74.898  41.808  85.029  0.00  0.00    +0.199 A 
ATOM     69  ND1 HIS A   4      73.654  41.737  84.587  0.00  0.00    -0.227 NA
ENDBRANCH  64  65
ENDBRANCH  36  64
ENDBRANCH   1  36
TORSDOF 25
REMARK  Name = ../refined-set-2016/3ozg/3ozg_pocket.pdb
REMARK  262 active torsions:
REMARK  status: ('A' for Active; 'I' for Inactive)
REMARK    1  A    between atoms: _1  and  _3
REMARK    2  A    between atoms: _3  and  _4
REMARK    3  A    between atoms: _3  and  _6
REMARK    4  A    between atoms: _6  and  _7
REMARK    5  A    between atoms: _10  and  _12
REMARK    6  A    between atoms: _12  and  _13
REMARK    7  A    between atoms: _12  and  _15
REMARK    8  A    between atoms: _15  and  _16
REMARK    9  A    between atoms: _19  and  _21
REMARK   10  A    between atoms: _21  and  _22
REMARK   11  A    between atoms: _21  and  _24
REMARK   12  A    between atoms: _24  and  _25
REMARK   13  A    between atoms: _25  and  _26
REMARK   14  A    between atoms: _26  and  _27
REMARK   15  A    between atoms: _27  and  _28
REMARK   16  A    between atoms: _32  and  _34
REMARK   17  A    between atoms: _34  and  _35
REMARK   18  A    between atoms: _37  and  _39
REMARK   19  A    between atoms: _39  and  _40
REMARK   20  A    between atoms: _39  and  _42
REMARK   21  A    between atoms: _42  and  _43
REMARK   22  A    between atoms: _45  and  _47
REMARK   23  A    between atoms: _47  and  _48
REMARK   24  A    between atoms: _47  and  _50
REMARK   25  A    between atoms: _50  and  _51
REMARK   26  A    between atoms: _51  and  _52
REMARK   27  A    between atoms: _52  and  _53
REMARK   28  A    between atoms: _62  and  _64
REMARK   29  A    between atoms: _64  and  _65
REMARK   30  A    between atoms: _64  and  _67
REMARK   31  A    between atoms: _67  and  _68
REMARK   32  A    between atoms: _68  and  _69
REMARK   33  A    between atoms: _69  and  _70
REMARK   34  A    between atoms: _79  and  _81
REMARK   35  A    between atoms: _81  and  _82
REMARK   36  A    between atoms: _81  and  _84
REMARK   37  A    between atoms: _87  and  _89
REMARK   38  A    between atoms: _89  and  _90
REMARK   39  A    between atoms: _89  and  _92
REMARK   40  A    between atoms: _92  and  _93
REMARK   41  A    between atoms: _93  and  _94
REMARK   42  A    between atoms: _94  and  _95
REMARK   43  A    between atoms: _95  and  _96
REMARK   44  A    between atoms: _100  and  _102
REMARK   45  A    between atoms: _102  and  _103
REMARK   46  A    between atoms: _102  and  _105
REMARK   47  A    between atoms: _105  and  _106
REMARK   48  A    between atoms: _108  and  _110
REMARK   49  A    between atoms: _110  and  _111
REMARK   50  A    between atoms: _110  and  _113
REMARK   51  A    between atoms: _113  and  _114
REMARK   52  A    between atoms: _119  and  _120
REMARK   53  A    between atoms: _122  and  _124
REMARK   54  A    between atoms: _124  and  _125
REMARK   55  A    between atoms: _124  and  _127
REMARK   56  A    between atoms: _129  and  _131
REMARK   57  A    between atoms: _131  and  _132
REMARK   58  A    between atoms: _131  and  _134
REMARK   59  A    between atoms: _134  and  _135
REMARK   60  A    between atoms: _140  and  _142
REMARK   61  A    between atoms: _142  and  _143
REMARK   62  A    between atoms: _142  and  _145
REMARK   63  A    between atoms: _145  and  _146
REMARK   64  A    between atoms: _149  and  _151
REMARK   65  A    between atoms: _151  and  _152
REMARK   66  A    between atoms: _151  and  _154
REMARK   67  A    between atoms: _154  and  _155
REMARK   68  A    between atoms: _155  and  _156
REMARK   69  A    between atoms: _161  and  _163
REMARK   70  A    between atoms: _163  and  _164
REMARK   71  A    between atoms: _163  and  _166
REMARK   72  A    between atoms: _166  and  _167
REMARK   73  A    between atoms: _169  and  _171
REMARK   74  A    between atoms: _171  and  _172
REMARK   75  A    between atoms: _171  and  _174
REMARK   76  A    between atoms: _174  and  _175
REMARK   77  A    between atoms: _178  and  _180
REMARK   78  A    between atoms: _180  and  _181
REMARK   79  A    between atoms: _183  and  _185
REMARK   80  A    between atoms: _185  and  _186
REMARK   81  A    between atoms: _185  and  _188
REMARK   82  A    between atoms: _188  and  _189
REMARK   83  A    between atoms: _192  and  _194
REMARK   84  A    between atoms: _194  and  _195
REMARK   85  A    between atoms: _194  and  _197
REMARK   86  A    between atoms: _197  and  _198
REMARK   87  A    between atoms: _201  and  _203
REMARK   88  A    between atoms: _203  and  _204
REMARK   89  A    between atoms: _203  and  _206
REMARK   90  A    between atoms: _209  and  _211
REMARK   91  A    between atoms: _211  and  _212
REMARK   92  A    between atoms: _211  and  _214
REMARK   93  A    between atoms: _214  and  _215
REMARK   94  A    between atoms: _215  and  _216
REMARK   95  A    between atoms: _219  and  _221
REMARK   96  A    between atoms: _221  and  _222
REMARK   97  A    between atoms: _221  and  _224
REMARK   98  A    between atoms: _224  and  _225
REMARK   99  A    between atoms: _228  and  _230
REMARK  100  A    between atoms: _230  and  _231
REMARK  101  A    between atoms: _230  and  _233
REMARK  102  A    between atoms: _233  and  _234
REMARK  103  A    between atoms: _237  and  _239
REMARK  104  A    between atoms: _239  and  _240
REMARK  105  A    between atoms: _239  and  _242
REMARK  106  A    between atoms: _242  and  _243
REMARK  107  A    between atoms: _246  and  _248
REMARK  108  A    between atoms: _248  and  _249
REMARK  109  A    between atoms: _248  and  _251
REMARK  110  A    between atoms: _251  and  _252
REMARK  111  A    between atoms: _255  and  _257
REMARK  112  A    between atoms: _257  and  _258
REMARK  113  A    between atoms: _257  and  _260
REMARK  114  A    between atoms: _260  and  _261
REMARK  115  A    between atoms: _264  and  _266
REMARK  116  A    between atoms: _266  and  _267
REMARK  117  A    between atoms: _269  and  _271
REMARK  118  A    between atoms: _271  and  _272
REMARK  119  A    between atoms: _271  and  _274
REMARK  120  A    between atoms: _274  and  _275
REMARK  121  A    between atoms: _275  and  _276
REMARK  122  A    between atoms: _276  and  _277
REMARK  123  A    between atoms: _277  and  _278
REMARK  124  A    between atoms: _282  and  _284
REMARK  125  A    between atoms: _284  and  _285
REMARK  126  A    between atoms: _284  and  _287
REMARK  127  A    between atoms: _287  and  _288
REMARK  128  A    between atoms: _291  and  _293
REMARK  129  A    between atoms: _293  and  _294
REMARK  130  A    between atoms: _293  and  _296
REMARK  131  A    between atoms: _296  and  _297
REMARK  132  A    between atoms: _300  and  _302
REMARK  133  A    between atoms: _302  and  _303
REMARK  134  A    between atoms: _302  and  _305
REMARK  135  A    between atoms: _308  and  _310
REMARK  136  A    between atoms: _310  and  _311
REMARK  137  A    between atoms: _310  and  _313
REMARK  138  A    between atoms: _313  and  _314
REMARK  139  A    between atoms: _314  and  _315
REMARK  140  A    between atoms: _315  and  _316
REMARK  141  A    between atoms: _316  and  _317
REMARK  142  A    between atoms: _321  and  _323
REMARK  143  A    between atoms: _323  and  _324
REMARK  144  A    between atoms: _323  and  _326
REMARK  145  A    between atoms: _326  and  _327
REMARK  146  A    between atoms: _333  and  _335
REMARK  147  A    between atoms: _335  and  _336
REMARK  148  A    between atoms: _335  and  _338
REMARK  149  A    between atoms: _340  and  _342
REMARK  150  A    between atoms: _342  and  _343
REMARK  151  A    between atoms: _342  and  _345
REMARK  152  A    between atoms: _345  and  _346
REMARK  153  A    between atoms: _352  and  _354
REMARK  154  A    between atoms: _354  and  _355
REMARK  155  A    between atoms: _354  and  _357
REMARK  156  A    between atoms: _357  and  _358
REMARK  157  A    between atoms: _358  and  _359
REMARK  158  A    between atoms: _359  and  _360
REMARK  159  A    between atoms: _360  and  _361
REMARK  160  A    between atoms: _365  and  _367
REMARK  161  A    between atoms: _367  and  _368
REMARK  162  A    between atoms: _367  and  _370
REMARK  163  A    between atoms: _370  and  _371
REMARK  164  A    between atoms: _374  and  _376
REMARK  165  A    between atoms: _376  and  _377
REMARK  166  A    between atoms: _376  and  _379
REMARK  167  A    between atoms: _379  and  _380
REMARK  168  A    between atoms: _383  and  _385
REMARK  169  A    between atoms: _385  and  _386
REMARK  170  A    between atoms: _385  and  _388
REMARK  171  A    between atoms: _388  and  _389
REMARK  172  A    between atoms: _399  and  _401
REMARK  173  A    between atoms: _401  and  _402
REMARK  174  A    between atoms: _401  and  _404
REMARK  175  A    between atoms: _404  and  _405
REMARK  176  A    between atoms: _410  and  _412
REMARK  177  A    between atoms: _412  and  _413
REMARK  178  A    between atoms: _412  and  _415
REMARK  179  A    between atoms: _415  and  _416
REMARK  180  A    between atoms: _422  and  _424
REMARK  181  A    between atoms: _424  and  _425
REMARK  182  A    between atoms: _424  and  _427
REMARK  183  A    between atoms: _427  and  _428
REMARK  184  A    between atoms: _432  and  _433
REMARK  185  A    between atoms: _438  and  _440
REMARK  186  A    between atoms: _440  and  _441
REMARK  187  A    between atoms: _440  and  _443
REMARK  188  A    between atoms: _443  and  _444
REMARK  189  A    between atoms: _447  and  _449
REMARK  190  A    between atoms: _449  and  _450
REMARK  191  A    between atoms: _449  and  _452
REMARK  192  A    between atoms: _452  and  _453
REMARK  193  A    between atoms: _458  and  _460
REMARK  194  A    between atoms: _460  and  _461
REMARK  195  A    between atoms: _460  and  _463
REMARK  196  A    between atoms: _463  and  _464
REMARK  197  A    between atoms: _470  and  _472
REMARK  198  A    between atoms: _472  and  _473
REMARK  199  A    between atoms: _472  and  _475
REMARK  200  A    between atoms: _478  and  _480
REMARK  201  A    between atoms: _480  and  _481
REMARK  202  A    between atoms: _480  and  _483
REMARK  203  A    between atoms: _486  and  _488
REMARK  204  A    between atoms: _488  and  _489
REMARK  205  A    between atoms: _491  and  _493
REMARK  206  A    between atoms: _493  and  _494
REMARK  207  A    between atoms: _493  and  _496
REMARK  208  A    between atoms: _496  and  _497
REMARK  209  A    between atoms: _499  and  _501
REMARK  210  A    between atoms: _501  and  _502
REMARK  211  A    between atoms: _501  and  _504
REMARK  212  A    between atoms: _504  and  _505
REMARK  213  A    between atoms: _508  and  _510
REMARK  214  A    between atoms: _510  and  _511
REMARK  215  A    between atoms: _510  and  _513
REMARK  216  A    between atoms: _513  and  _514
REMARK  217  A    between atoms: _514  and  _515
REMARK  218  A    between atoms: _515  and  MG_622
REMARK  219  A    between atoms: _517  and  _519
REMARK  220  A    between atoms: _519  and  _520
REMARK  221  A    between atoms: _519  and  _522
REMARK  222  A    between atoms: _522  and  _523
REMARK  223  A    between atoms: _528  and  _529
REMARK  224  A    between atoms: _531  and  _533
REMARK  225  A    between atoms: _533  and  _534
REMARK  226  A    between atoms: _533  and  _536
REMARK  227  A    between atoms: _536  and  _537
REMARK  228  A    between atoms: _542  and  _544
REMARK  229  A    between atoms: _544  and  _545
REMARK  230  A    between atoms: _544  and  _547
REMARK  231  A    between atoms: _547  and  _548
REMARK  232  A    between atoms: _548  and  _549
REMARK  233  A    between atoms: _552  and  _554
REMARK  234  A    between atoms: _554  and  _555
REMARK  235  A    between atoms: _554  and  _557
REMARK  236  A    between atoms: _557  and  _558
REMARK  237  A    between atoms: _561  and  _563
REMARK  238  A    between atoms: _563  and  _564
REMARK  239  A    between atoms: _563  and  _566
REMARK  240  A    between atoms: _566  and  _567
REMARK  241  A    between atoms: _567  and  _568
REMARK  242  A    between atoms: _568  and  _569
REMARK  243  A    between atoms: _578  and  _580
REMARK  244  A    between atoms: _580  and  _581
REMARK  245  A    between atoms: _580  and  _583
REMARK  246  A    between atoms: _585  and  _587
REMARK  247  A    between atoms: _587  and  _588
REMARK  248  A    between atoms: _587  and  _590
REMARK  249  A    between atoms: _592  and  _594
REMARK  250  A    between atoms: _594  and  _595
REMARK  251  A    between atoms: _594  and  _597
REMARK  252  A    between atoms: _597  and  _598
REMARK  253  A    between atoms: _601  and  _603
REMARK  254  A    between atoms: _603  and  _604
REMARK  255  A    between atoms: _603  and  _606
REMARK  256  A    between atoms: _609  and  _611
REMARK  257  A    between atoms: _611  and  _612
REMARK  258  A    between atoms: _611  and  _614
REMARK  259  A    between atoms: _614  and  _615
REMARK  260  A    between atoms: _615  and  _616
REMARK  261  A    between atoms: _616  and  _617
REMARK  262  A    between atoms: _617  and  _618
REMARK                            x       y       z     vdW  Elec       q    Type
REMARK                         _______ _______ _______ _____ _____    ______ ____
ROOT
ATOM      1  CA  TYR A   4      61.789  32.560  84.330  0.00  0.00    +0.000 C 
ENDROOT
BRANCH   1   3
ATOM      2  C   UNK A   3      60.809  34.472  83.196  0.00  0.00    +0.000 C 
ATOM      3  N   TYR A   4      60.928  33.722  84.289  0.00  0.00    +0.000 N 
ATOM      4  H   TYR A   4      60.386  33.979  85.139  0.00  0.00    +0.000 HD
ATOM      5  O   UNK A   3      61.688  34.591  82.334  0.00  0.00    +0.000 OA
BRANCH   2   6
ATOM      6  C   UNK A   3      59.480  35.190  83.085  0.00  0.00    +0.000 C 
BRANCH   6   9
ATOM      7  C   LEU A   2      59.336  37.542  82.485  0.00  0.00    +0.000 C 
ATOM      8  O   LEU A   2      59.340  37.886  83.664  0.00  0.00    +0.000 OA
ATOM      9  N   UNK A   3      59.473  36.271  82.110  0.00  0.00    +0.000 N 
ATOM     10  H   UNK A   3      59.577  36.046  81.100  0.00  0.00    +0.000 HD
BRANCH   7  11
ATOM     11  CA  LEU A   2      59.161  38.585  81.391  0.00  0.00    +0.000 C 
BRANCH  11  13
ATOM     12  C   SER A   1      56.790  39.167  81.493  0.00  0.00    +0.000 C 
ATOM     13  N   LEU A   2      58.057  39.492  81.752  0.00  0.00    +0.000 N 
ATOM     14  H   LEU A   2      58.269  40.399  82.215  0.00  0.00    +0.000 HD
ATOM     15  O   SER A   1      56.493  38.144  80.893  0.00  0.00    +0.000 OA
BRANCH  12  16
ATOM     16  CA  SER A   1      55.686  40.137  81.905  0.00  0.00    +0.000 C 
BRANCH  16  17
ATOM     17  N   SER A   1      56.124  41.244  82.781  0.00  0.00    +0.000 NA
ATOM     18  H   SER A   1      56.035  41.108  83.808  0.00  0.00    +0.000 HD
ENDBRANCH  16  17
BRANCH  16  19
ATOM     19  CB  SER A   1      54.932  40.620  80.640  0.00  0.00    +0.000 C 
BRANCH  19  20
ATOM     20  OG  SER A   1      53.733  41.314  80.969  0.00  0.00    +0.000 OA
ATOM     21  H   SER A   1      53.283  41.605  80.137  0.00  0.00    +0.000 HD
ENDBRANCH  19  20
ENDBRANCH  16  19
ENDBRANCH  12  16
ENDBRANCH  11  13
BRANCH  11  22
ATOM     22  CB  LEU A   2      60.456  39.374  81.163  0.00  0.00    +0.000 C 
BRANCH  22  23
ATOM     23  CG  LEU A   2      60.485  40.249  79.888  0.00  0.00    +0.000 C 
ATOM     24  CD2 LEU A   2      59.711  41.572  80.043  0.00  0.00    +0.000 C 
ATOM     25  CD1 LEU A   2      61.907  40.571  79.499  0.00  0.00    +0.000 C 
ENDBRANCH  22  23
ENDBRANCH  11  22
ENDBRANCH   7  11
ENDBRANCH   6   9
BRANCH   6  26
ATOM     26  C   UNK A   3      58.403  34.138  82.763  0.00  0.00    +0.000 C 
BRANCH  26  27
ATOM     27  C   UNK A   3      58.700  33.351  81.476  0.00  0.00    +0.000 C 
ATOM     28  O   UNK A   3      58.795  32.089  81.500  0.00  0.00    +0.000 OA
BRANCH  27  29
ATOM     29  O   UNK A   3      58.820  33.989  80.423  0.00  0.00    +0.000 OA
BRANCH  29  30
ATOM     30 MG   UNK A   3      59.686  33.452  78.698  0.00  0.00    +0.000 Mg
ATOM     31  O   UNK A   3      61.495  33.462  79.619  0.00  0.00    +0.000 OA
ENDBRANCH  29  30
ENDBRANCH  27  29
ENDBRANCH  26  27
ENDBRANCH   6  26
ENDBRANCH   2   6
ENDBRANCH   1   3
BRANCH   1  32
ATOM     32  C   TYR A   4      60.859  31.371  84.651  0.00  0.00    +0.000 C 
ATOM     33  O   TYR A   4      60.329  31.241  85.758  0.00  0.00    +0.000 OA
ATOM     34  N   ASN A   5      60.638  30.545  83.629  0.00  0.00    +0.000 N 
ATOM     35  H   ASN A   5      61.097  30.766  82.722  0.00  0.00    +0.000 HD
BRANCH  34  36
ATOM     36  CA  ASN A   5      59.799  29.352  83.689  0.00  0.00    +0.000 C 
BRANCH  36  37
ATOM     37  C   ASN A   5      58.382  29.582  84.221  0.00  0.00    +0.000 C 
ATOM     38  O   ASN A   5      57.915  28.835  85.083  0.00  0.00    +0.000 OA
ATOM     39  N   GLU A   6      57.727  30.611  83.673  0.00  0.00    +0.000 N 
ATOM     40  H   GLU A   6      58.219  31.157  82.937  0.00  0.00    +0.000 HD
BRANCH  39  41
ATOM     41  CA  GLU A   6      56.358  31.032  84.033  0.00  0.00    +0.000 C 
BRANCH  41  42
ATOM     42  C   GLU A   6      56.296  31.746  85.381  0.00  0.00    +0.000 C 
ATOM     43  N   ILE A   7      57.445  31.970  86.009  0.00  0.00    +0.000 N 
ATOM     44  H   ILE A   7      58.339  31.629  85.602  0.00  0.00    +0.000 HD
ATOM     45  O   GLU A   6      55.208  32.091  85.848  0.00  0.00    +0.000 OA
BRANCH  43  46
ATOM     46  CA  ILE A   7      57.445  32.703  87.284  0.00  0.00    +0.000 C 
BRANCH  46  47
ATOM     47  CB  ILE A   7      58.324  32.019  88.398  0.00  0.00    +0.000 C 
ATOM     48  CG2 ILE A   7      58.189  32.770  89.737  0.00  0.00    +0.000 C 
BRANCH  47  49
ATOM     49  CG1 ILE A   7      58.008  30.510  88.560  0.00  0.00    +0.000 C 
ATOM     50  CD1 ILE A   7      56.484  30.158  88.761  0.00  0.00    +0.000 C 
ENDBRANCH  47  49
ENDBRANCH  46  47
BRANCH  46  51
ATOM     51  C   ILE A   7      57.870  34.176  87.070  0.00  0.00    +0.000 C 
ATOM     52  O   ILE A   7      58.571  34.475  86.105  0.00  0.00    +0.000 OA
ENDBRANCH  46  51
ENDBRANCH  43  46
ENDBRANCH  41  42
BRANCH  41  53
ATOM     53  CB  GLU A   6      55.332  29.868  83.995  0.00  0.00    +0.000 C 
BRANCH  53  54
ATOM     54  CG  GLU A   6      55.149  29.159  82.624  0.00  0.00    +0.000 C 
BRANCH  54  55
ATOM     55  CD  GLU A   6      54.968  30.115  81.423  0.00  0.00    +0.000 C 
ATOM     56  OE2 GLU A   6      54.341  31.189  81.545  0.00  0.00    +0.000 OA
ATOM     57  OE1 GLU A   6      55.442  29.772  80.329  0.00  0.00    +0.000 OA
ENDBRANCH  54  55
ENDBRANCH  53  54
ENDBRANCH  41  53
ENDBRANCH  39  41
ENDBRANCH  36  37
BRANCH  36  58
ATOM     58  CB  ASN A   5      60.498  28.201  84.441  0.00  0.00    +0.000 C 
BRANCH  58  59
ATOM     59  CG  ASN A   5      61.787  27.741  83.752  0.00  0.00    +0.000 C 
ATOM     60  ND2 ASN A   5      62.742  27.278  84.558  0.00  0.00    +0.000 N 
ATOM     61 HD21 ASN A   5      62.589  27.255  85.586  0.00  0.00    +0.000 HD
ATOM     62 HD22 ASN A   5      63.641  26.939  84.159  0.00  0.00    +0.000 HD
ATOM     63  OD1 ASN A   5      61.919  27.790  82.513  0.00  0.00    +0.000 OA
ENDBRANCH  58  59
ENDBRANCH  36  58
ENDBRANCH  34  36
ENDBRANCH   1  32
BRANCH   1  64
ATOM     64  CB  TYR A   4      62.935  32.761  85.329  0.00  0.00    +0.000 C 
BRANCH  64  65
ATOM     65  CG  TYR A   4      63.873  31.583  85.461  0.00  0.00    +0.000 A 
ATOM     66  CD2 TYR A   4      63.629  30.583  86.408  0.00  0.00    +0.000 A 
ATOM     67  CE2 TYR A   4      64.493  29.485  86.547  0.00  0.00    +0.000 A 
ATOM     68  CZ  TYR A   4      65.624  29.405  85.742  0.00  0.00    +0.000 A 
ATOM     69  CE1 TYR A   4      65.893  30.384  84.788  0.00  0.00    +0.000 A 
ATOM     70  CD1 TYR A   4      65.018  31.475  84.655  0.00  0.00    +0.000 A 
BRANCH  68  71
ATOM     71  OH  TYR A   4      66.453  28.331  85.880  0.00  0.00    +0.000 OA
ATOM     72  HH  TYR A   4      66.801  28.301  86.806  0.00  0.00    +0.000 HD
ENDBRANCH  68  71
ENDBRANCH  64  65
ENDBRANCH   1  64
TORSDOF 32
REMARK  Name = ../refined-set-2016/3ozg/3ozg_pocket.pdb
REMARK  262 active torsions:
REMARK  status: ('A' for Active; 'I' for Inactive)
REMARK    1  A    between atoms: _1  and  _3
REMARK    2  A    between atoms: _3  and  _4
REMARK    3  A    between atoms: _3  and  _6
REMARK    4  A    between atoms: _6  and  _7
REMARK    5  A    between atoms: _10  and  _12
REMARK    6  A    between atoms: _12  and  _13
REMARK    7  A    between atoms: _12  and  _15
REMARK    8  A    between atoms: _15  and  _16
REMARK    9  A    between atoms: _19  and  _21
REMARK   10  A    between atoms: _21  and  _22
REMARK   11  A    between atoms: _21  and  _24
REMARK   12  A    between atoms: _24  and  _25
REMARK   13  A    between atoms: _25  and  _26
REMARK   14  A    between atoms: _26  and  _27
REMARK   15  A    between atoms: _27  and  _28
REMARK   16  A    between atoms: _32  and  _34
REMARK   17  A    between atoms: _34  and  _35
REMARK   18  A    between atoms: _37  and  _39
REMARK   19  A    between atoms: _39  and  _40
REMARK   20  A    between atoms: _39  and  _42
REMARK   21  A    between atoms: _42  and  _43
REMARK   22  A    between atoms: _45  and  _47
REMARK   23  A    between atoms: _47  and  _48
REMARK   24  A    between atoms: _47  and  _50
REMARK   25  A    between atoms: _50  and  _51
REMARK   26  A    between atoms: _51  and  _52
REMARK   27  A    between atoms: _52  and  _53
REMARK   28  A    between atoms: _62  and  _64
REMARK   29  A    between atoms: _64  and  _65
REMARK   30  A    between atoms: _64  and  _67
REMARK   31  A    between atoms: _67  and  _68
REMARK   32  A    between atoms: _68  and  _69
REMARK   33  A    between atoms: _69  and  _70
REMARK   34  A    between atoms: _79  and  _81
REMARK   35  A    between atoms: _81  and  _82
REMARK   36  A    between atoms: _81  and  _84
REMARK   37  A    between atoms: _87  and  _89
REMARK   38  A    between atoms: _89  and  _90
REMARK   39  A    between atoms: _89  and  _92
REMARK   40  A    between atoms: _92  and  _93
REMARK   41  A    between atoms: _93  and  _94
REMARK   42  A    between atoms: _94  and  _95
REMARK   43  A    between atoms: _95  and  _96
REMARK   44  A    between atoms: _100  and  _102
REMARK   45  A    between atoms: _102  and  _103
REMARK   46  A    between atoms: _102  and  _105
REMARK   47  A    between atoms: _105  and  _106
REMARK   48  A    between atoms: _108  and  _110
REMARK   49  A    between atoms: _110  and  _111
REMARK   50  A    between atoms: _110  and  _113
REMARK   51  A    between atoms: _113  and  _114
REMARK   52  A    between atoms: _119  and  _120
REMARK   53  A    between atoms: _122  and  _124
REMARK   54  A    between atoms: _124  and  _125
REMARK   55  A    between atoms: _124  and  _127
REMARK   56  A    between atoms: _129  and  _131
REMARK   57  A    between atoms: _131  and  _132
REMARK   58  A    between atoms: _131  and  _134
REMARK   59  A    between atoms: _134  and  _135
REMARK   60  A    between atoms: _140  and  _142
REMARK   61  A    between atoms: _142  and  _143
REMARK   62  A    between atoms: _142  and  _145
REMARK   63  A    between atoms: _145  and  _146
REMARK   64  A    between atoms: _149  and  _151
REMARK   65  A    between atoms: _151  and  _152
REMARK   66  A    between atoms: _151  and  _154
REMARK   67  A    between atoms: _154  and  _155
REMARK   68  A    between atoms: _155  and  _156
REMARK   69  A    between atoms: _161  and  _163
REMARK   70  A    between atoms: _163  and  _164
REMARK   71  A    between atoms: _163  and  _166
REMARK   72  A    between atoms: _166  and  _167
REMARK   73  A    between atoms: _169  and  _171
REMARK   74  A    between atoms: _171  and  _172
REMARK   75  A    between atoms: _171  and  _174
REMARK   76  A    between atoms: _174  and  _175
REMARK   77  A    between atoms: _178  and  _180
REMARK   78  A    between atoms: _180  and  _181
REMARK   79  A    between atoms: _183  and  _185
REMARK   80  A    between atoms: _185  and  _186
REMARK   81  A    between atoms: _185  and  _188
REMARK   82  A    between atoms: _188  and  _189
REMARK   83  A    between atoms: _192  and  _194
REMARK   84  A    between atoms: _194  and  _195
REMARK   85  A    between atoms: _194  and  _197
REMARK   86  A    between atoms: _197  and  _198
REMARK   87  A    between atoms: _201  and  _203
REMARK   88  A    between atoms: _203  and  _204
REMARK   89  A    between atoms: _203  and  _206
REMARK   90  A    between atoms: _209  and  _211
REMARK   91  A    between atoms: _211  and  _212
REMARK   92  A    between atoms: _211  and  _214
REMARK   93  A    between atoms: _214  and  _215
REMARK   94  A    between atoms: _215  and  _216
REMARK   95  A    between atoms: _219  and  _221
REMARK   96  A    between atoms: _221  and  _222
REMARK   97  A    between atoms: _221  and  _224
REMARK   98  A    between atoms: _224  and  _225
REMARK   99  A    between atoms: _228  and  _230
REMARK  100  A    between atoms: _230  and  _231
REMARK  101  A    between atoms: _230  and  _233
REMARK  102  A    between atoms: _233  and  _234
REMARK  103  A    between atoms: _237  and  _239
REMARK  104  A    between atoms: _239  and  _240
REMARK  105  A    between atoms: _239  and  _242
REMARK  106  A    between atoms: _242  and  _243
REMARK  107  A    between atoms: _246  and  _248
REMARK  108  A    between atoms: _248  and  _249
REMARK  109  A    between atoms: _248  and  _251
REMARK  110  A    between atoms: _251  and  _252
REMARK  111  A    between atoms: _255  and  _257
REMARK  112  A    between atoms: _257  and  _258
REMARK  113  A    between atoms: _257  and  _260
REMARK  114  A    between atoms: _260  and  _261
REMARK  115  A    between atoms: _264  and  _266
REMARK  116  A    between atoms: _266  and  _267
REMARK  117  A    between atoms: _269  and  _271
REMARK  118  A    between atoms: _271  and  _272
REMARK  119  A    between atoms: _271  and  _274
REMARK  120  A    between atoms: _274  and  _275
REMARK  121  A    between atoms: _275  and  _276
REMARK  122  A    between atoms: _276  and  _277
REMARK  123  A    between atoms: _277  and  _278
REMARK  124  A    between atoms: _282  and  _284
REMARK  125  A    between atoms: _284  and  _285
REMARK  126  A    between atoms: _284  and  _287
REMARK  127  A    between atoms: _287  and  _288
REMARK  128  A    between atoms: _291  and  _293
REMARK  129  A    between atoms: _293  and  _294
REMARK  130  A    between atoms: _293  and  _296
REMARK  131  A    between atoms: _296  and  _297
REMARK  132  A    between atoms: _300  and  _302
REMARK  133  A    between atoms: _302  and  _303
REMARK  134  A    between atoms: _302  and  _305
REMARK  135  A    between atoms: _308  and  _310
REMARK  136  A    between atoms: _310  and  _311
REMARK  137  A    between atoms: _310  and  _313
REMARK  138  A    between atoms: _313  and  _314
REMARK  139  A    between atoms: _314  and  _315
REMARK  140  A    between atoms: _315  and  _316
REMARK  141  A    between atoms: _316  and  _317
REMARK  142  A    between atoms: _321  and  _323
REMARK  143  A    between atoms: _323  and  _324
REMARK  144  A    between atoms: _323  and  _326
REMARK  145  A    between atoms: _326  and  _327
REMARK  146  A    between atoms: _333  and  _335
REMARK  147  A    between atoms: _335  and  _336
REMARK  148  A    between atoms: _335  and  _338
REMARK  149  A    between atoms: _340  and  _342
REMARK  150  A    between atoms: _342  and  _343
REMARK  151  A    between atoms: _342  and  _345
REMARK  152  A    between atoms: _345  and  _346
REMARK  153  A    between atoms: _352  and  _354
REMARK  154  A    between atoms: _354  and  _355
REMARK  155  A    between atoms: _354  and  _357
REMARK  156  A    between atoms: _357  and  _358
REMARK  157  A    between atoms: _358  and  _359
REMARK  158  A    between atoms: _359  and  _360
REMARK  159  A    between atoms: _360  and  _361
REMARK  160  A    between atoms: _365  and  _367
REMARK  161  A    between atoms: _367  and  _368
REMARK  162  A    between atoms: _367  and  _370
REMARK  163  A    between atoms: _370  and  _371
REMARK  164  A    between atoms: _374  and  _376
REMARK  165  A    between atoms: _376  and  _377
REMARK  166  A    between atoms: _376  and  _379
REMARK  167  A    between atoms: _379  and  _380
REMARK  168  A    between atoms: _383  and  _385
REMARK  169  A    between atoms: _385  and  _386
REMARK  170  A    between atoms: _385  and  _388
REMARK  171  A    between atoms: _388  and  _389
REMARK  172  A    between atoms: _399  and  _401
REMARK  173  A    between atoms: _401  and  _402
REMARK  174  A    between atoms: _401  and  _404
REMARK  175  A    between atoms: _404  and  _405
REMARK  176  A    between atoms: _410  and  _412
REMARK  177  A    between atoms: _412  and  _413
REMARK  178  A    between atoms: _412  and  _415
REMARK  179  A    between atoms: _415  and  _416
REMARK  180  A    between atoms: _422  and  _424
REMARK  181  A    between atoms: _424  and  _425
REMARK  182  A    between atoms: _424  and  _427
REMARK  183  A    between atoms: _427  and  _428
REMARK  184  A    between atoms: _432  and  _433
REMARK  185  A    between atoms: _438  and  _440
REMARK  186  A    between atoms: _440  and  _441
REMARK  187  A    between atoms: _440  and  _443
REMARK  188  A    between atoms: _443  and  _444
REMARK  189  A    between atoms: _447  and  _449
REMARK  190  A    between atoms: _449  and  _450
REMARK  191  A    between atoms: _449  and  _452
REMARK  192  A    between atoms: _452  and  _453
REMARK  193  A    between atoms: _458  and  _460
REMARK  194  A    between atoms: _460  and  _461
REMARK  195  A    between atoms: _460  and  _463
REMARK  196  A    between atoms: _463  and  _464
REMARK  197  A    between atoms: _470  and  _472
REMARK  198  A    between atoms: _472  and  _473
REMARK  199  A    between atoms: _472  and  _475
REMARK  200  A    between atoms: _478  and  _480
REMARK  201  A    between atoms: _480  and  _481
REMARK  202  A    between atoms: _480  and  _483
REMARK  203  A    between atoms: _486  and  _488
REMARK  204  A    between atoms: _488  and  _489
REMARK  205  A    between atoms: _491  and  _493
REMARK  206  A    between atoms: _493  and  _494
REMARK  207  A    between atoms: _493  and  _496
REMARK  208  A    between atoms: _496  and  _497
REMARK  209  A    between atoms: _499  and  _501
REMARK  210  A    between atoms: _501  and  _502
REMARK  211  A    between atoms: _501  and  _504
REMARK  212  A    between atoms: _504  and  _505
REMARK  213  A    between atoms: _508  and  _510
REMARK  214  A    between atoms: _510  and  _511
REMARK  215  A    between atoms: _510  and  _513
REMARK  216  A    between atoms: _513  and  _514
REMARK  217  A    between atoms: _514  and  _515
REMARK  218  A    between atoms: _515  and  MG_622
REMARK  219  A    between atoms: _517  and  _519
REMARK  220  A    between atoms: _519  and  _520
REMARK  221  A    between atoms: _519  and  _522
REMARK  222  A    between atoms: _522  and  _523
REMARK  223  A    between atoms: _528  and  _529
REMARK  224  A    between atoms: _531  and  _533
REMARK  225  A    between atoms: _533  and  _534
REMARK  226  A    between atoms: _533  and  _536
REMARK  227  A    between atoms: _536  and  _537
REMARK  228  A    between atoms: _542  and  _544
REMARK  229  A    between atoms: _544  and  _545
REMARK  230  A    between atoms: _544  and  _547
REMARK  231  A    between atoms: _547  and  _548
REMARK  232  A    between atoms: _548  and  _549
REMARK  233  A    between atoms: _552  and  _554
REMARK  234  A    between atoms: _554  and  _555
REMARK  235  A    between atoms: _554  and  _557
REMARK  236  A    between atoms: _557  and  _558
REMARK  237  A    between atoms: _561  and  _563
REMARK  238  A    between atoms: _563  and  _564
REMARK  239  A    between atoms: _563  and  _566
REMARK  240  A    between atoms: _566  and  _567
REMARK  241  A    between atoms: _567  and  _568
REMARK  242  A    between atoms: _568  and  _569
REMARK  243  A    between atoms: _578  and  _580
REMARK  244  A    between atoms: _580  and  _581
REMARK  245  A    between atoms: _580  and  _583
REMARK  246  A    between atoms: _585  and  _587
REMARK  247  A    between atoms: _587  and  _588
REMARK  248  A    between atoms: _587  and  _590
REMARK  249  A    between atoms: _592  and  _594
REMARK  250  A    between atoms: _594  and  _595
REMARK  251  A    between atoms: _594  and  _597
REMARK  252  A    between atoms: _597  and  _598
REMARK  253  A    between atoms: _601  and  _603
REMARK  254  A    between atoms: _603  and  _604
REMARK  255  A    between atoms: _603  and  _606
REMARK  256  A    between atoms: _609  and  _611
REMARK  257  A    between atoms: _611  and  _612
REMARK  258  A    between atoms: _611  and  _614
REMARK  259  A    between atoms: _614  and  _615
REMARK  260  A    between atoms: _615  and  _616
REMARK  261  A    between atoms: _616  and  _617
REMARK  262  A    between atoms: _617  and  _618
REMARK                            x       y       z     vdW  Elec       q    Type
REMARK                         _______ _______ _______ _____ _____    ______ ____
ROOT
ATOM      1  NE  ARG A   1      54.834  34.351  81.494  0.00  0.00    -0.265 N 
ATOM      2  HE  ARG A   1      54.427  33.433  81.764  0.00  0.00    +0.259 HD
ATOM      3  CZ  ARG A   1      55.776  34.344  80.545  0.00  0.00    +0.342 C 
ATOM      4  NH2 ARG A   1      56.347  35.469  80.112  0.00  0.00    -0.292 N 
ATOM      5 HH21 ARG A   1      56.062  36.385  80.514  0.00  0.00    +0.255 HD
ATOM      6 HH22 ARG A   1      57.077  35.430  79.372  0.00  0.00    +0.255 HD
ATOM      7  NH1 ARG A   1      56.173  33.184  80.040  0.00  0.00    -0.292 N 
ATOM      8 HH11 ARG A   1      55.753  32.297  80.383  0.00  0.00    +0.255 HD
ATOM      9 HH12 ARG A   1      56.905  33.162  79.301  0.00  0.00    +0.255 HD
ENDROOT
BRANCH   1  10
ATOM     10  CD  ARG A   1      54.327  35.531  82.183  0.00  0.00    +0.174 C 
BRANCH  10  11
ATOM     11  CG  ARG A   1      55.185  35.832  83.416  0.00  0.00    +0.045 C 
BRANCH  11  12
ATOM     12  CB  ARG A   1      54.595  36.940  84.219  0.00  0.00    +0.029 C 
BRANCH  12  13
ATOM     13  CA  ARG A   1      55.578  37.721  85.087  0.00  0.00    +0.133 C 
BRANCH  13  14
ATOM     14  N   ARG A   1      56.212  36.887  86.129  0.00  0.00    -0.239 NA
ATOM     15  H   ARG A   1      55.952  35.884  86.221  0.00  0.00    +0.142 HD
ENDBRANCH  13  14
BRANCH  13  16
ATOM     16  C   ARG A   1      54.825  38.870  85.735  0.00  0.00    +0.224 C 
ATOM     17  O   ARG A   1      54.602  39.915  85.118  0.00  0.00    -0.287 OA
ENDBRANCH  13  16
ENDBRANCH  12  13
ENDBRANCH  11  12
ENDBRANCH  10  11
ENDBRANCH   1  10
TORSDOF 6
REMARK  Name = ../refined-set-2016/3ozg/3ozg_pocket.pdb
REMARK  262 active torsions:
REMARK  status: ('A' for Active; 'I' for Inactive)
REMARK    1  A    between atoms: _1  and  _3
REMARK    2  A    between atoms: _3  and  _4
REMARK    3  A    between atoms: _3  and  _6
REMARK    4  A    between atoms: _6  and  _7
REMARK    5  A    between atoms: _10  and  _12
REMARK    6  A    between atoms: _12  and  _13
REMARK    7  A    between atoms: _12  and  _15
REMARK    8  A    between atoms: _15  and  _16
REMARK    9  A    between atoms: _19  and  _21
REMARK   10  A    between atoms: _21  and  _22
REMARK   11  A    between atoms: _21  and  _24
REMARK   12  A    between atoms: _24  and  _25
REMARK   13  A    between atoms: _25  and  _26
REMARK   14  A    between atoms: _26  and  _27
REMARK   15  A    between atoms: _27  and  _28
REMARK   16  A    between atoms: _32  and  _34
REMARK   17  A    between atoms: _34  and  _35
REMARK   18  A    between atoms: _37  and  _39
REMARK   19  A    between atoms: _39  and  _40
REMARK   20  A    between atoms: _39  and  _42
REMARK   21  A    between atoms: _42  and  _43
REMARK   22  A    between atoms: _45  and  _47
REMARK   23  A    between atoms: _47  and  _48
REMARK   24  A    between atoms: _47  and  _50
REMARK   25  A    between atoms: _50  and  _51
REMARK   26  A    between atoms: _51  and  _52
REMARK   27  A    between atoms: _52  and  _53
REMARK   28  A    between atoms: _62  and  _64
REMARK   29  A    between atoms: _64  and  _65
REMARK   30  A    between atoms: _64  and  _67
REMARK   31  A    between atoms: _67  and  _68
REMARK   32  A    between atoms: _68  and  _69
REMARK   33  A    between atoms: _69  and  _70
REMARK   34  A    between atoms: _79  and  _81
REMARK   35  A    between atoms: _81  and  _82
REMARK   36  A    between atoms: _81  and  _84
REMARK   37  A    between atoms: _87  and  _89
REMARK   38  A    between atoms: _89  and  _90
REMARK   39  A    between atoms: _89  and  _92
REMARK   40  A    between atoms: _92  and  _93
REMARK   41  A    between atoms: _93  and  _94
REMARK   42  A    between atoms: _94  and  _95
REMARK   43  A    between atoms: _95  and  _96
REMARK   44  A    between atoms: _100  and  _102
REMARK   45  A    between atoms: _102  and  _103
REMARK   46  A    between atoms: _102  and  _105
REMARK   47  A    between atoms: _105  and  _106
REMARK   48  A    between atoms: _108  and  _110
REMARK   49  A    between atoms: _110  and  _111
REMARK   50  A    between atoms: _110  and  _113
REMARK   51  A    between atoms: _113  and  _114
REMARK   52  A    between atoms: _119  and  _120
REMARK   53  A    between atoms: _122  and  _124
REMARK   54  A    between atoms: _124  and  _125
REMARK   55  A    between atoms: _124  and  _127
REMARK   56  A    between atoms: _129  and  _131
REMARK   57  A    between atoms: _131  and  _132
REMARK   58  A    between atoms: _131  and  _134
REMARK   59  A    between atoms: _134  and  _135
REMARK   60  A    between atoms: _140  and  _142
REMARK   61  A    between atoms: _142  and  _143
REMARK   62  A    between atoms: _142  and  _145
REMARK   63  A    between atoms: _145  and  _146
REMARK   64  A    between atoms: _149  and  _151
REMARK   65  A    between atoms: _151  and  _152
REMARK   66  A    between atoms: _151  and  _154
REMARK   67  A    between atoms: _154  and  _155
REMARK   68  A    between atoms: _155  and  _156
REMARK   69  A    between atoms: _161  and  _163
REMARK   70  A    between atoms: _163  and  _164
REMARK   71  A    between atoms: _163  and  _166
REMARK   72  A    between atoms: _166  and  _167
REMARK   73  A    between atoms: _169  and  _171
REMARK   74  A    between atoms: _171  and  _172
REMARK   75  A    between atoms: _171  and  _174
REMARK   76  A    between atoms: _174  and  _175
REMARK   77  A    between atoms: _178  and  _180
REMARK   78  A    between atoms: _180  and  _181
REMARK   79  A    between atoms: _183  and  _185
REMARK   80  A    between atoms: _185  and  _186
REMARK   81  A    between atoms: _185  and  _188
REMARK   82  A    between atoms: _188  and  _189
REMARK   83  A    between atoms: _192  and  _194
REMARK   84  A    between atoms: _194  and  _195
REMARK   85  A    between atoms: _194  and  _197
REMARK   86  A    between atoms: _197  and  _198
REMARK   87  A    between atoms: _201  and  _203
REMARK   88  A    between atoms: _203  and  _204
REMARK   89  A    between atoms: _203  and  _206
REMARK   90  A    between atoms: _209  and  _211
REMARK   91  A    between atoms: _211  and  _212
REMARK   92  A    between atoms: _211  and  _214
REMARK   93  A    between atoms: _214  and  _215
REMARK   94  A    between atoms: _215  and  _216
REMARK   95  A    between atoms: _219  and  _221
REMARK   96  A    between atoms: _221  and  _222
REMARK   97  A    between atoms: _221  and  _224
REMARK   98  A    between atoms: _224  and  _225
REMARK   99  A    between atoms: _228  and  _230
REMARK  100  A    between atoms: _230  and  _231
REMARK  101  A    between atoms: _230  and  _233
REMARK  102  A    between atoms: _233  and  _234
REMARK  103  A    between atoms: _237  and  _239
REMARK  104  A    between atoms: _239  and  _240
REMARK  105  A    between atoms: _239  and  _242
REMARK  106  A    between atoms: _242  and  _243
REMARK  107  A    between atoms: _246  and  _248
REMARK  108  A    between atoms: _248  and  _249
REMARK  109  A    between atoms: _248  and  _251
REMARK  110  A    between atoms: _251  and  _252
REMARK  111  A    between atoms: _255  and  _257
REMARK  112  A    between atoms: _257  and  _258
REMARK  113  A    between atoms: _257  and  _260
REMARK  114  A    between atoms: _260  and  _261
REMARK  115  A    between atoms: _264  and  _266
REMARK  116  A    between atoms: _266  and  _267
REMARK  117  A    between atoms: _269  and  _271
REMARK  118  A    between atoms: _271  and  _272
REMARK  119  A    between atoms: _271  and  _274
REMARK  120  A    between atoms: _274  and  _275
REMARK  121  A    between atoms: _275  and  _276
REMARK  122  A    between atoms: _276  and  _277
REMARK  123  A    between atoms: _277  and  _278
REMARK  124  A    between atoms: _282  and  _284
REMARK  125  A    between atoms: _284  and  _285
REMARK  126  A    between atoms: _284  and  _287
REMARK  127  A    between atoms: _287  and  _288
REMARK  128  A    between atoms: _291  and  _293
REMARK  129  A    between atoms: _293  and  _294
REMARK  130  A    between atoms: _293  and  _296
REMARK  131  A    between atoms: _296  and  _297
REMARK  132  A    between atoms: _300  and  _302
REMARK  133  A    between atoms: _302  and  _303
REMARK  134  A    between atoms: _302  and  _305
REMARK  135  A    between atoms: _308  and  _310
REMARK  136  A    between atoms: _310  and  _311
REMARK  137  A    between atoms: _310  and  _313
REMARK  138  A    between atoms: _313  and  _314
REMARK  139  A    between atoms: _314  and  _315
REMARK  140  A    between atoms: _315  and  _316
REMARK  141  A    between atoms: _316  and  _317
REMARK  142  A    between atoms: _321  and  _323
REMARK  143  A    between atoms: _323  and  _324
REMARK  144  A    between atoms: _323  and  _326
REMARK  145  A    between atoms: _326  and  _327
REMARK  146  A    between atoms: _333  and  _335
REMARK  147  A    between atoms: _335  and  _336
REMARK  148  A    between atoms: _335  and  _338
REMARK  149  A    between atoms: _340  and  _342
REMARK  150  A    between atoms: _342  and  _343
REMARK  151  A    between atoms: _342  and  _345
REMARK  152  A    between atoms: _345  and  _346
REMARK  153  A    between atoms: _352  and  _354
REMARK  154  A    between atoms: _354  and  _355
REMARK  155  A    between atoms: _354  and  _357
REMARK  156  A    between atoms: _357  and  _358
REMARK  157  A    between atoms: _358  and  _359
REMARK  158  A    between atoms: _359  and  _360
REMARK  159  A    between atoms: _360  and  _361
REMARK  160  A    between atoms: _365  and  _367
REMARK  161  A    between atoms: _367  and  _368
REMARK  162  A    between atoms: _367  and  _370
REMARK  163  A    between atoms: _370  and  _371
REMARK  164  A    between atoms: _374  and  _376
REMARK  165  A    between atoms: _376  and  _377
REMARK  166  A    between atoms: _376  and  _379
REMARK  167  A    between atoms: _379  and  _380
REMARK  168  A    between atoms: _383  and  _385
REMARK  169  A    between atoms: _385  and  _386
REMARK  170  A    between atoms: _385  and  _388
REMARK  171  A    between atoms: _388  and  _389
REMARK  172  A    between atoms: _399  and  _401
REMARK  173  A    between atoms: _401  and  _402
REMARK  174  A    between atoms: _401  and  _404
REMARK  175  A    between atoms: _404  and  _405
REMARK  176  A    between atoms: _410  and  _412
REMARK  177  A    between atoms: _412  and  _413
REMARK  178  A    between atoms: _412  and  _415
REMARK  179  A    between atoms: _415  and  _416
REMARK  180  A    between atoms: _422  and  _424
REMARK  181  A    between atoms: _424  and  _425
REMARK  182  A    between atoms: _424  and  _427
REMARK  183  A    between atoms: _427  and  _428
REMARK  184  A    between atoms: _432  and  _433
REMARK  185  A    between atoms: _438  and  _440
REMARK  186  A    between atoms: _440  and  _441
REMARK  187  A    between atoms: _440  and  _443
REMARK  188  A    between atoms: _443  and  _444
REMARK  189  A    between atoms: _447  and  _449
REMARK  190  A    between atoms: _449  and  _450
REMARK  191  A    between atoms: _449  and  _452
REMARK  192  A    between atoms: _452  and  _453
REMARK  193  A    between atoms: _458  and  _460
REMARK  194  A    between atoms: _460  and  _461
REMARK  195  A    between atoms: _460  and  _463
REMARK  196  A    between atoms: _463  and  _464
REMARK  197  A    between atoms: _470  and  _472
REMARK  198  A    between atoms: _472  and  _473
REMARK  199  A    between atoms: _472  and  _475
REMARK  200  A    between atoms: _478  and  _480
REMARK  201  A    between atoms: _480  and  _481
REMARK  202  A    between atoms: _480  and  _483
REMARK  203  A    between atoms: _486  and  _488
REMARK  204  A    between atoms: _488  and  _489
REMARK  205  A    between atoms: _491  and  _493
REMARK  206  A    between atoms: _493  and  _494
REMARK  207  A    between atoms: _493  and  _496
REMARK  208  A    between atoms: _496  and  _497
REMARK  209  A    between atoms: _499  and  _501
REMARK  210  A    between atoms: _501  and  _502
REMARK  211  A    between atoms: _501  and  _504
REMARK  212  A    between atoms: _504  and  _505
REMARK  213  A    between atoms: _508  and  _510
REMARK  214  A    between atoms: _510  and  _511
REMARK  215  A    between atoms: _510  and  _513
REMARK  216  A    between atoms: _513  and  _514
REMARK  217  A    between atoms: _514  and  _515
REMARK  218  A    between atoms: _515  and  MG_622
REMARK  219  A    between atoms: _517  and  _519
REMARK  220  A    between atoms: _519  and  _520
REMARK  221  A    between atoms: _519  and  _522
REMARK  222  A    between atoms: _522  and  _523
REMARK  223  A    between atoms: _528  and  _529
REMARK  224  A    between atoms: _531  and  _533
REMARK  225  A    between atoms: _533  and  _534
REMARK  226  A    between atoms: _533  and  _536
REMARK  227  A    between atoms: _536  and  _537
REMARK  228  A    between atoms: _542  and  _544
REMARK  229  A    between atoms: _544  and  _545
REMARK  230  A    between atoms: _544  and  _547
REMARK  231  A    between atoms: _547  and  _548
REMARK  232  A    between atoms: _548  and  _549
REMARK  233  A    between atoms: _552  and  _554
REMARK  234  A    between atoms: _554  and  _555
REMARK  235  A    between atoms: _554  and  _557
REMARK  236  A    between atoms: _557  and  _558
REMARK  237  A    between atoms: _561  and  _563
REMARK  238  A    between atoms: _563  and  _564
REMARK  239  A    between atoms: _563  and  _566
REMARK  240  A    between atoms: _566  and  _567
REMARK  241  A    between atoms: _567  and  _568
REMARK  242  A    between atoms: _568  and  _569
REMARK  243  A    between atoms: _578  and  _580
REMARK  244  A    between atoms: _580  and  _581
REMARK  245  A    between atoms: _580  and  _583
REMARK  246  A    between atoms: _585  and  _587
REMARK  247  A    between atoms: _587  and  _588
REMARK  248  A    between atoms: _587  and  _590
REMARK  249  A    between atoms: _592  and  _594
REMARK  250  A    between atoms: _594  and  _595
REMARK  251  A    between atoms: _594  and  _597
REMARK  252  A    between atoms: _597  and  _598
REMARK  253  A    between atoms: _601  and  _603
REMARK  254  A    between atoms: _603  and  _604
REMARK  255  A    between atoms: _603  and  _606
REMARK  256  A    between atoms: _609  and  _611
REMARK  257  A    between atoms: _611  and  _612
REMARK  258  A    between atoms: _611  and  _614
REMARK  259  A    between atoms: _614  and  _615
REMARK  260  A    between atoms: _615  and  _616
REMARK  261  A    between atoms: _616  and  _617
REMARK  262  A    between atoms: _617  and  _618
REMARK                            x       y       z     vdW  Elec       q    Type
REMARK                         _______ _______ _______ _____ _____    ______ ____
ROOT
ATOM      1  C   CYS A   2      65.748  41.625  87.489  0.00  0.00    +0.242 C 
ATOM      2  N   LEU A   3      66.879  41.429  88.173  0.00  0.00    -0.297 N 
ATOM      3  H   LEU A   3      67.115  42.070  88.957  0.00  0.00    +0.150 HD
ATOM      4  O   CYS A   2      65.411  40.937  86.536  0.00  0.00    -0.273 OA
ENDROOT
BRANCH   1   5
ATOM      5  CA  CYS A   2      64.867  42.754  87.958  0.00  0.00    +0.160 C 
BRANCH   5   7
ATOM      6  C   CYS A   1      63.647  44.401  86.590  0.00  0.00    +0.239 C 
ATOM      7  N   CYS A   2      63.854  43.134  86.963  0.00  0.00    -0.296 N 
ATOM      8  H   CYS A   2      63.274  42.386  86.531  0.00  0.00    +0.150 HD
ATOM      9  O   CYS A   1      64.341  45.344  86.951  0.00  0.00    -0.274 OA
BRANCH   6  10
ATOM     10  CA  CYS A   1      62.447  44.650  85.704  0.00  0.00    +0.156 C 
BRANCH  10  11
ATOM     11  N   CYS A   1      61.547  45.509  86.454  0.00  0.00    -0.237 NA
ATOM     12  H   CYS A   1      61.634  46.540  86.350  0.00  0.00    +0.142 HD
ENDBRANCH  10  11
BRANCH  10  13
ATOM     13  CB  CYS A   1      62.871  45.303  84.368  0.00  0.00    +0.095 C 
ATOM     14  SG  CYS A   1      64.170  44.362  83.453  0.00  0.00    -0.080 S 
ENDBRANCH  10  13
ENDBRANCH   6  10
ENDBRANCH   5   7
BRANCH   5  15
ATOM     15  CB  CYS A   2      64.184  42.332  89.262  0.00  0.00    +0.098 C 
ATOM     16  SG  CYS A   2      63.060  43.571  89.952  0.00  0.00    -0.080 S 
ENDBRANCH   5  15
ENDBRANCH   1   5
BRANCH   2  17
ATOM     17  CA  LEU A   3      67.793  40.336  87.846  0.00  0.00    +0.149 C 
BRANCH  17  18
ATOM     18  C   LEU A   3      67.533  39.187  88.790  0.00  0.00    +0.241 C 
ATOM     19  O   LEU A   3      67.677  39.340  90.003  0.00  0.00    -0.273 OA
ATOM     20  N   VAL A   4      67.117  38.044  88.248  0.00  0.00    -0.298 N 
ATOM     21  H   VAL A   4      66.899  38.000  87.232  0.00  0.00    +0.150 HD
BRANCH  20  22
ATOM     22  CA  VAL A   4      66.966  36.853  89.077  0.00  0.00    +0.137 C 
BRANCH  22  23
ATOM     23  CB  VAL A   4      66.306  35.655  88.359  0.00  0.00    +0.026 C 
ATOM     24  CG2 VAL A   4      64.828  35.671  88.547  0.00  0.00    +0.002 C 
ATOM     25  CG1 VAL A   4      66.711  35.576  86.889  0.00  0.00    +0.002 C 
ENDBRANCH  22  23
BRANCH  22  26
ATOM     26  C   VAL A   4      68.325  36.370  89.510  0.00  0.00    +0.227 C 
ATOM     27  O   VAL A   4      69.245  36.301  88.694  0.00  0.00    -0.286 OA
ENDBRANCH  22  26
ENDBRANCH  20  22
ENDBRANCH  17  18
BRANCH  17  28
ATOM     28  CB  LEU A   3      69.247  40.784  87.974  0.00  0.00    +0.029 C 
BRANCH  28  29
ATOM     29  CG  LEU A   3      69.645  42.112  87.338  0.00  0.00    +0.002 C 
ATOM     30  CD2 LEU A   3      71.187  42.202  87.283  0.00  0.00    +0.000 C 
ATOM     31  CD1 LEU A   3      69.067  42.230  85.931  0.00  0.00    +0.000 C 
ENDBRANCH  28  29
ENDBRANCH  17  28
ENDBRANCH   2  17
TORSDOF 13
REMARK  Name = ../refined-set-2016/3ozg/3ozg_pocket.pdb
REMARK  262 active torsions:
REMARK  status: ('A' for Active; 'I' for Inactive)
REMARK    1  A    between atoms: _1  and  _3
REMARK    2  A    between atoms: _3  and  _4
REMARK    3  A    between atoms: _3  and  _6
REMARK    4  A    between atoms: _6  and  _7
REMARK    5  A    between atoms: _10  and  _12
REMARK    6  A    between atoms: _12  and  _13
REMARK    7  A    between atoms: _12  and  _15
REMARK    8  A    between atoms: _15  and  _16
REMARK    9  A    between atoms: _19  and  _21
REMARK   10  A    between atoms: _21  and  _22
REMARK   11  A    between atoms: _21  and  _24
REMARK   12  A    between atoms: _24  and  _25
REMARK   13  A    between atoms: _25  and  _26
REMARK   14  A    between atoms: _26  and  _27
REMARK   15  A    between atoms: _27  and  _28
REMARK   16  A    between atoms: _32  and  _34
REMARK   17  A    between atoms: _34  and  _35
REMARK   18  A    between atoms: _37  and  _39
REMARK   19  A    between atoms: _39  and  _40
REMARK   20  A    between atoms: _39  and  _42
REMARK   21  A    between atoms: _42  and  _43
REMARK   22  A    between atoms: _45  and  _47
REMARK   23  A    between atoms: _47  and  _48
REMARK   24  A    between atoms: _47  and  _50
REMARK   25  A    between atoms: _50  and  _51
REMARK   26  A    between atoms: _51  and  _52
REMARK   27  A    between atoms: _52  and  _53
REMARK   28  A    between atoms: _62  and  _64
REMARK   29  A    between atoms: _64  and  _65
REMARK   30  A    between atoms: _64  and  _67
REMARK   31  A    between atoms: _67  and  _68
REMARK   32  A    between atoms: _68  and  _69
REMARK   33  A    between atoms: _69  and  _70
REMARK   34  A    between atoms: _79  and  _81
REMARK   35  A    between atoms: _81  and  _82
REMARK   36  A    between atoms: _81  and  _84
REMARK   37  A    between atoms: _87  and  _89
REMARK   38  A    between atoms: _89  and  _90
REMARK   39  A    between atoms: _89  and  _92
REMARK   40  A    between atoms: _92  and  _93
REMARK   41  A    between atoms: _93  and  _94
REMARK   42  A    between atoms: _94  and  _95
REMARK   43  A    between atoms: _95  and  _96
REMARK   44  A    between atoms: _100  and  _102
REMARK   45  A    between atoms: _102  and  _103
REMARK   46  A    between atoms: _102  and  _105
REMARK   47  A    between atoms: _105  and  _106
REMARK   48  A    between atoms: _108  and  _110
REMARK   49  A    between atoms: _110  and  _111
REMARK   50  A    between atoms: _110  and  _113
REMARK   51  A    between atoms: _113  and  _114
REMARK   52  A    between atoms: _119  and  _120
REMARK   53  A    between atoms: _122  and  _124
REMARK   54  A    between atoms: _124  and  _125
REMARK   55  A    between atoms: _124  and  _127
REMARK   56  A    between atoms: _129  and  _131
REMARK   57  A    between atoms: _131  and  _132
REMARK   58  A    between atoms: _131  and  _134
REMARK   59  A    between atoms: _134  and  _135
REMARK   60  A    between atoms: _140  and  _142
REMARK   61  A    between atoms: _142  and  _143
REMARK   62  A    between atoms: _142  and  _145
REMARK   63  A    between atoms: _145  and  _146
REMARK   64  A    between atoms: _149  and  _151
REMARK   65  A    between atoms: _151  and  _152
REMARK   66  A    between atoms: _151  and  _154
REMARK   67  A    between atoms: _154  and  _155
REMARK   68  A    between atoms: _155  and  _156
REMARK   69  A    between atoms: _161  and  _163
REMARK   70  A    between atoms: _163  and  _164
REMARK   71  A    between atoms: _163  and  _166
REMARK   72  A    between atoms: _166  and  _167
REMARK   73  A    between atoms: _169  and  _171
REMARK   74  A    between atoms: _171  and  _172
REMARK   75  A    between atoms: _171  and  _174
REMARK   76  A    between atoms: _174  and  _175
REMARK   77  A    between atoms: _178  and  _180
REMARK   78  A    between atoms: _180  and  _181
REMARK   79  A    between atoms: _183  and  _185
REMARK   80  A    between atoms: _185  and  _186
REMARK   81  A    between atoms: _185  and  _188
REMARK   82  A    between atoms: _188  and  _189
REMARK   83  A    between atoms: _192  and  _194
REMARK   84  A    between atoms: _194  and  _195
REMARK   85  A    between atoms: _194  and  _197
REMARK   86  A    between atoms: _197  and  _198
REMARK   87  A    between atoms: _201  and  _203
REMARK   88  A    between atoms: _203  and  _204
REMARK   89  A    between atoms: _203  and  _206
REMARK   90  A    between atoms: _209  and  _211
REMARK   91  A    between atoms: _211  and  _212
REMARK   92  A    between atoms: _211  and  _214
REMARK   93  A    between atoms: _214  and  _215
REMARK   94  A    between atoms: _215  and  _216
REMARK   95  A    between atoms: _219  and  _221
REMARK   96  A    between atoms: _221  and  _222
REMARK   97  A    between atoms: _221  and  _224
REMARK   98  A    between atoms: _224  and  _225
REMARK   99  A    between atoms: _228  and  _230
REMARK  100  A    between atoms: _230  and  _231
REMARK  101  A    between atoms: _230  and  _233
REMARK  102  A    between atoms: _233  and  _234
REMARK  103  A    between atoms: _237  and  _239
REMARK  104  A    between atoms: _239  and  _240
REMARK  105  A    between atoms: _239  and  _242
REMARK  106  A    between atoms: _242  and  _243
REMARK  107  A    between atoms: _246  and  _248
REMARK  108  A    between atoms: _248  and  _249
REMARK  109  A    between atoms: _248  and  _251
REMARK  110  A    between atoms: _251  and  _252
REMARK  111  A    between atoms: _255  and  _257
REMARK  112  A    between atoms: _257  and  _258
REMARK  113  A    between atoms: _257  and  _260
REMARK  114  A    between atoms: _260  and  _261
REMARK  115  A    between atoms: _264  and  _266
REMARK  116  A    between atoms: _266  and  _267
REMARK  117  A    between atoms: _269  and  _271
REMARK  118  A    between atoms: _271  and  _272
REMARK  119  A    between atoms: _271  and  _274
REMARK  120  A    between atoms: _274  and  _275
REMARK  121  A    between atoms: _275  and  _276
REMARK  122  A    between atoms: _276  and  _277
REMARK  123  A    between atoms: _277  and  _278
REMARK  124  A    between atoms: _282  and  _284
REMARK  125  A    between atoms: _284  and  _285
REMARK  126  A    between atoms: _284  and  _287
REMARK  127  A    between atoms: _287  and  _288
REMARK  128  A    between atoms: _291  and  _293
REMARK  129  A    between atoms: _293  and  _294
REMARK  130  A    between atoms: _293  and  _296
REMARK  131  A    between atoms: _296  and  _297
REMARK  132  A    between atoms: _300  and  _302
REMARK  133  A    between atoms: _302  and  _303
REMARK  134  A    between atoms: _302  and  _305
REMARK  135  A    between atoms: _308  and  _310
REMARK  136  A    between atoms: _310  and  _311
REMARK  137  A    between atoms: _310  and  _313
REMARK  138  A    between atoms: _313  and  _314
REMARK  139  A    between atoms: _314  and  _315
REMARK  140  A    between atoms: _315  and  _316
REMARK  141  A    between atoms: _316  and  _317
REMARK  142  A    between atoms: _321  and  _323
REMARK  143  A    between atoms: _323  and  _324
REMARK  144  A    between atoms: _323  and  _326
REMARK  145  A    between atoms: _326  and  _327
REMARK  146  A    between atoms: _333  and  _335
REMARK  147  A    between atoms: _335  and  _336
REMARK  148  A    between atoms: _335  and  _338
REMARK  149  A    between atoms: _340  and  _342
REMARK  150  A    between atoms: _342  and  _343
REMARK  151  A    between atoms: _342  and  _345
REMARK  152  A    between atoms: _345  and  _346
REMARK  153  A    between atoms: _352  and  _354
REMARK  154  A    between atoms: _354  and  _355
REMARK  155  A    between atoms: _354  and  _357
REMARK  156  A    between atoms: _357  and  _358
REMARK  157  A    between atoms: _358  and  _359
REMARK  158  A    between atoms: _359  and  _360
REMARK  159  A    between atoms: _360  and  _361
REMARK  160  A    between atoms: _365  and  _367
REMARK  161  A    between atoms: _367  and  _368
REMARK  162  A    between atoms: _367  and  _370
REMARK  163  A    between atoms: _370  and  _371
REMARK  164  A    between atoms: _374  and  _376
REMARK  165  A    between atoms: _376  and  _377
REMARK  166  A    between atoms: _376  and  _379
REMARK  167  A    between atoms: _379  and  _380
REMARK  168  A    between atoms: _383  and  _385
REMARK  169  A    between atoms: _385  and  _386
REMARK  170  A    between atoms: _385  and  _388
REMARK  171  A    between atoms: _388  and  _389
REMARK  172  A    between atoms: _399  and  _401
REMARK  173  A    between atoms: _401  and  _402
REMARK  174  A    between atoms: _401  and  _404
REMARK  175  A    between atoms: _404  and  _405
REMARK  176  A    between atoms: _410  and  _412
REMARK  177  A    between atoms: _412  and  _413
REMARK  178  A    between atoms: _412  and  _415
REMARK  179  A    between atoms: _415  and  _416
REMARK  180  A    between atoms: _422  and  _424
REMARK  181  A    between atoms: _424  and  _425
REMARK  182  A    between atoms: _424  and  _427
REMARK  183  A    between atoms: _427  and  _428
REMARK  184  A    between atoms: _432  and  _433
REMARK  185  A    between atoms: _438  and  _440
REMARK  186  A    between atoms: _440  and  _441
REMARK  187  A    between atoms: _440  and  _443
REMARK  188  A    between atoms: _443  and  _444
REMARK  189  A    between atoms: _447  and  _449
REMARK  190  A    between atoms: _449  and  _450
REMARK  191  A    between atoms: _449  and  _452
REMARK  192  A    between atoms: _452  and  _453
REMARK  193  A    between atoms: _458  and  _460
REMARK  194  A    between atoms: _460  and  _461
REMARK  195  A    between atoms: _460  and  _463
REMARK  196  A    between atoms: _463  and  _464
REMARK  197  A    between atoms: _470  and  _472
REMARK  198  A    between atoms: _472  and  _473
REMARK  199  A    between atoms: _472  and  _475
REMARK  200  A    between atoms: _478  and  _480
REMARK  201  A    between atoms: _480  and  _481
REMARK  202  A    between atoms: _480  and  _483
REMARK  203  A    between atoms: _486  and  _488
REMARK  204  A    between atoms: _488  and  _489
REMARK  205  A    between atoms: _491  and  _493
REMARK  206  A    between atoms: _493  and  _494
REMARK  207  A    between atoms: _493  and  _496
REMARK  208  A    between atoms: _496  and  _497
REMARK  209  A    between atoms: _499  and  _501
REMARK  210  A    between atoms: _501  and  _502
REMARK  211  A    between atoms: _501  and  _504
REMARK  212  A    between atoms: _504  and  _505
REMARK  213  A    between atoms: _508  and  _510
REMARK  214  A    between atoms: _510  and  _511
REMARK  215  A    between atoms: _510  and  _513
REMARK  216  A    between atoms: _513  and  _514
REMARK  217  A    between atoms: _514  and  _515
REMARK  218  A    between atoms: _515  and  MG_622
REMARK  219  A    between atoms: _517  and  _519
REMARK  220  A    between atoms: _519  and  _520
REMARK  221  A    between atoms: _519  and  _522
REMARK  222  A    between atoms: _522  and  _523
REMARK  223  A    between atoms: _528  and  _529
REMARK  224  A    between atoms: _531  and  _533
REMARK  225  A    between atoms: _533  and  _534
REMARK  226  A    between atoms: _533  and  _536
REMARK  227  A    between atoms: _536  and  _537
REMARK  228  A    between atoms: _542  and  _544
REMARK  229  A    between atoms: _544  and  _545
REMARK  230  A    between atoms: _544  and  _547
REMARK  231  A    between atoms: _547  and  _548
REMARK  232  A    between atoms: _548  and  _549
REMARK  233  A    between atoms: _552  and  _554
REMARK  234  A    between atoms: _554  and  _555
REMARK  235  A    between atoms: _554  and  _557
REMARK  236  A    between atoms: _557  and  _558
REMARK  237  A    between atoms: _561  and  _563
REMARK  238  A    between atoms: _563  and  _564
REMARK  239  A    between atoms: _563  and  _566
REMARK  240  A    between atoms: _566  and  _567
REMARK  241  A    between atoms: _567  and  _568
REMARK  242  A    between atoms: _568  and  _569
REMARK  243  A    between atoms: _578  and  _580
REMARK  244  A    between atoms: _580  and  _581
REMARK  245  A    between atoms: _580  and  _583
REMARK  246  A    between atoms: _585  and  _587
REMARK  247  A    between atoms: _587  and  _588
REMARK  248  A    between atoms: _587  and  _590
REMARK  249  A    between atoms: _592  and  _594
REMARK  250  A    between atoms: _594  and  _595
REMARK  251  A    between atoms: _594  and  _597
REMARK  252  A    between atoms: _597  and  _598
REMARK  253  A    between atoms: _601  and  _603
REMARK  254  A    between atoms: _603  and  _604
REMARK  255  A    between atoms: _603  and  _606
REMARK  256  A    between atoms: _609  and  _611
REMARK  257  A    between atoms: _611  and  _612
REMARK  258  A    between atoms: _611  and  _614
REMARK  259  A    between atoms: _614  and  _615
REMARK  260  A    between atoms: _615  and  _616
REMARK  261  A    between atoms: _616  and  _617
REMARK  262  A    between atoms: _617  and  _618
REMARK                            x       y       z     vdW  Elec       q    Type
REMARK                         _______ _______ _______ _____ _____    ______ ____
ROOT
ATOM      1  CG  LYS A   1      68.518  31.715  87.316  0.00  0.00    -0.000 C 
ENDROOT
BRANCH   1   2
ATOM      2  CB  LYS A   1      68.539  30.414  88.117  0.00  0.00    +0.025 C 
BRANCH   2   3
ATOM      3  CA  LYS A   1      67.225  30.092  88.835  0.00  0.00    +0.133 C 
BRANCH   3   4
ATOM      4  N   LYS A   1      67.054  30.936  90.018  0.00  0.00    -0.239 NA
ATOM      5  H   LYS A   1      67.818  31.588  90.289  0.00  0.00    +0.142 HD
ENDBRANCH   3   4
BRANCH   3   6
ATOM      6  C   LYS A   1      67.201  28.618  89.223  0.00  0.00    +0.224 C 
ATOM      7  O   LYS A   1      66.647  27.788  88.517  0.00  0.00    -0.287 OA
ENDBRANCH   3   6
ENDBRANCH   2   3
ENDBRANCH   1   2
BRANCH   1   8
ATOM      8  CD  LYS A   1      69.921  32.074  86.846  0.00  0.00    -0.024 C 
BRANCH   8   9
ATOM      9  CE  LYS A   1      69.865  33.065  85.693  0.00  0.00    -0.086 C 
BRANCH   9  10
ATOM     10  NZ  LYS A   1      71.233  33.454  85.267  0.00  0.00    +0.380 N 
ATOM     11  HZ1 LYS A   1      71.731  33.896  86.066  0.00  0.00    -0.089 HD
ATOM     12  HZ2 LYS A   1      71.752  32.608  84.958  0.00  0.00    -0.089 HD
ATOM     13  HZ3 LYS A   1      71.170  34.130  84.480  0.00  0.00    -0.089 HD
ENDBRANCH   9  10
ENDBRANCH   8   9
ENDBRANCH   1   8
TORSDOF 7
REMARK  Name = ../refined-set-2016/3ozg/3ozg_pocket.pdb
REMARK  262 active torsions:
REMARK  status: ('A' for Active; 'I' for Inactive)
REMARK    1  A    between atoms: _1  and  _3
REMARK    2  A    between atoms: _3  and  _4
REMARK    3  A    between atoms: _3  and  _6
REMARK    4  A    between atoms: _6  and  _7
REMARK    5  A    between atoms: _10  and  _12
REMARK    6  A    between atoms: _12  and  _13
REMARK    7  A    between atoms: _12  and  _15
REMARK    8  A    between atoms: _15  and  _16
REMARK    9  A    between atoms: _19  and  _21
REMARK   10  A    between atoms: _21  and  _22
REMARK   11  A    between atoms: _21  and  _24
REMARK   12  A    between atoms: _24  and  _25
REMARK   13  A    between atoms: _25  and  _26
REMARK   14  A    between atoms: _26  and  _27
REMARK   15  A    between atoms: _27  and  _28
REMARK   16  A    between atoms: _32  and  _34
REMARK   17  A    between atoms: _34  and  _35
REMARK   18  A    between atoms: _37  and  _39
REMARK   19  A    between atoms: _39  and  _40
REMARK   20  A    between atoms: _39  and  _42
REMARK   21  A    between atoms: _42  and  _43
REMARK   22  A    between atoms: _45  and  _47
REMARK   23  A    between atoms: _47  and  _48
REMARK   24  A    between atoms: _47  and  _50
REMARK   25  A    between atoms: _50  and  _51
REMARK   26  A    between atoms: _51  and  _52
REMARK   27  A    between atoms: _52  and  _53
REMARK   28  A    between atoms: _62  and  _64
REMARK   29  A    between atoms: _64  and  _65
REMARK   30  A    between atoms: _64  and  _67
REMARK   31  A    between atoms: _67  and  _68
REMARK   32  A    between atoms: _68  and  _69
REMARK   33  A    between atoms: _69  and  _70
REMARK   34  A    between atoms: _79  and  _81
REMARK   35  A    between atoms: _81  and  _82
REMARK   36  A    between atoms: _81  and  _84
REMARK   37  A    between atoms: _87  and  _89
REMARK   38  A    between atoms: _89  and  _90
REMARK   39  A    between atoms: _89  and  _92
REMARK   40  A    between atoms: _92  and  _93
REMARK   41  A    between atoms: _93  and  _94
REMARK   42  A    between atoms: _94  and  _95
REMARK   43  A    between atoms: _95  and  _96
REMARK   44  A    between atoms: _100  and  _102
REMARK   45  A    between atoms: _102  and  _103
REMARK   46  A    between atoms: _102  and  _105
REMARK   47  A    between atoms: _105  and  _106
REMARK   48  A    between atoms: _108  and  _110
REMARK   49  A    between atoms: _110  and  _111
REMARK   50  A    between atoms: _110  and  _113
REMARK   51  A    between atoms: _113  and  _114
REMARK   52  A    between atoms: _119  and  _120
REMARK   53  A    between atoms: _122  and  _124
REMARK   54  A    between atoms: _124  and  _125
REMARK   55  A    between atoms: _124  and  _127
REMARK   56  A    between atoms: _129  and  _131
REMARK   57  A    between atoms: _131  and  _132
REMARK   58  A    between atoms: _131  and  _134
REMARK   59  A    between atoms: _134  and  _135
REMARK   60  A    between atoms: _140  and  _142
REMARK   61  A    between atoms: _142  and  _143
REMARK   62  A    between atoms: _142  and  _145
REMARK   63  A    between atoms: _145  and  _146
REMARK   64  A    between atoms: _149  and  _151
REMARK   65  A    between atoms: _151  and  _152
REMARK   66  A    between atoms: _151  and  _154
REMARK   67  A    between atoms: _154  and  _155
REMARK   68  A    between atoms: _155  and  _156
REMARK   69  A    between atoms: _161  and  _163
REMARK   70  A    between atoms: _163  and  _164
REMARK   71  A    between atoms: _163  and  _166
REMARK   72  A    between atoms: _166  and  _167
REMARK   73  A    between atoms: _169  and  _171
REMARK   74  A    between atoms: _171  and  _172
REMARK   75  A    between atoms: _171  and  _174
REMARK   76  A    between atoms: _174  and  _175
REMARK   77  A    between atoms: _178  and  _180
REMARK   78  A    between atoms: _180  and  _181
REMARK   79  A    between atoms: _183  and  _185
REMARK   80  A    between atoms: _185  and  _186
REMARK   81  A    between atoms: _185  and  _188
REMARK   82  A    between atoms: _188  and  _189
REMARK   83  A    between atoms: _192  and  _194
REMARK   84  A    between atoms: _194  and  _195
REMARK   85  A    between atoms: _194  and  _197
REMARK   86  A    between atoms: _197  and  _198
REMARK   87  A    between atoms: _201  and  _203
REMARK   88  A    between atoms: _203  and  _204
REMARK   89  A    between atoms: _203  and  _206
REMARK   90  A    between atoms: _209  and  _211
REMARK   91  A    between atoms: _211  and  _212
REMARK   92  A    between atoms: _211  and  _214
REMARK   93  A    between atoms: _214  and  _215
REMARK   94  A    between atoms: _215  and  _216
REMARK   95  A    between atoms: _219  and  _221
REMARK   96  A    between atoms: _221  and  _222
REMARK   97  A    between atoms: _221  and  _224
REMARK   98  A    between atoms: _224  and  _225
REMARK   99  A    between atoms: _228  and  _230
REMARK  100  A    between atoms: _230  and  _231
REMARK  101  A    between atoms: _230  and  _233
REMARK  102  A    between atoms: _233  and  _234
REMARK  103  A    between atoms: _237  and  _239
REMARK  104  A    between atoms: _239  and  _240
REMARK  105  A    between atoms: _239  and  _242
REMARK  106  A    between atoms: _242  and  _243
REMARK  107  A    between atoms: _246  and  _248
REMARK  108  A    between atoms: _248  and  _249
REMARK  109  A    between atoms: _248  and  _251
REMARK  110  A    between atoms: _251  and  _252
REMARK  111  A    between atoms: _255  and  _257
REMARK  112  A    between atoms: _257  and  _258
REMARK  113  A    between atoms: _257  and  _260
REMARK  114  A    between atoms: _260  and  _261
REMARK  115  A    between atoms: _264  and  _266
REMARK  116  A    between atoms: _266  and  _267
REMARK  117  A    between atoms: _269  and  _271
REMARK  118  A    between atoms: _271  and  _272
REMARK  119  A    between atoms: _271  and  _274
REMARK  120  A    between atoms: _274  and  _275
REMARK  121  A    between atoms: _275  and  _276
REMARK  122  A    between atoms: _276  and  _277
REMARK  123  A    between atoms: _277  and  _278
REMARK  124  A    between atoms: _282  and  _284
REMARK  125  A    between atoms: _284  and  _285
REMARK  126  A    between atoms: _284  and  _287
REMARK  127  A    between atoms: _287  and  _288
REMARK  128  A    between atoms: _291  and  _293
REMARK  129  A    between atoms: _293  and  _294
REMARK  130  A    between atoms: _293  and  _296
REMARK  131  A    between atoms: _296  and  _297
REMARK  132  A    between atoms: _300  and  _302
REMARK  133  A    between atoms: _302  and  _303
REMARK  134  A    between atoms: _302  and  _305
REMARK  135  A    between atoms: _308  and  _310
REMARK  136  A    between atoms: _310  and  _311
REMARK  137  A    between atoms: _310  and  _313
REMARK  138  A    between atoms: _313  and  _314
REMARK  139  A    between atoms: _314  and  _315
REMARK  140  A    between atoms: _315  and  _316
REMARK  141  A    between atoms: _316  and  _317
REMARK  142  A    between atoms: _321  and  _323
REMARK  143  A    between atoms: _323  and  _324
REMARK  144  A    between atoms: _323  and  _326
REMARK  145  A    between atoms: _326  and  _327
REMARK  146  A    between atoms: _333  and  _335
REMARK  147  A    between atoms: _335  and  _336
REMARK  148  A    between atoms: _335  and  _338
REMARK  149  A    between atoms: _340  and  _342
REMARK  150  A    between atoms: _342  and  _343
REMARK  151  A    between atoms: _342  and  _345
REMARK  152  A    between atoms: _345  and  _346
REMARK  153  A    between atoms: _352  and  _354
REMARK  154  A    between atoms: _354  and  _355
REMARK  155  A    between atoms: _354  and  _357
REMARK  156  A    between atoms: _357  and  _358
REMARK  157  A    between atoms: _358  and  _359
REMARK  158  A    between atoms: _359  and  _360
REMARK  159  A    between atoms: _360  and  _361
REMARK  160  A    between atoms: _365  and  _367
REMARK  161  A    between atoms: _367  and  _368
REMARK  162  A    between atoms: _367  and  _370
REMARK  163  A    between atoms: _370  and  _371
REMARK  164  A    between atoms: _374  and  _376
REMARK  165  A    between atoms: _376  and  _377
REMARK  166  A    between atoms: _376  and  _379
REMARK  167  A    between atoms: _379  and  _380
REMARK  168  A    between atoms: _383  and  _385
REMARK  169  A    between atoms: _385  and  _386
REMARK  170  A    between atoms: _385  and  _388
REMARK  171  A    between atoms: _388  and  _389
REMARK  172  A    between atoms: _399  and  _401
REMARK  173  A    between atoms: _401  and  _402
REMARK  174  A    between atoms: _401  and  _404
REMARK  175  A    between atoms: _404  and  _405
REMARK  176  A    between atoms: _410  and  _412
REMARK  177  A    between atoms: _412  and  _413
REMARK  178  A    between atoms: _412  and  _415
REMARK  179  A    between atoms: _415  and  _416
REMARK  180  A    between atoms: _422  and  _424
REMARK  181  A    between atoms: _424  and  _425
REMARK  182  A    between atoms: _424  and  _427
REMARK  183  A    between atoms: _427  and  _428
REMARK  184  A    between atoms: _432  and  _433
REMARK  185  A    between atoms: _438  and  _440
REMARK  186  A    between atoms: _440  and  _441
REMARK  187  A    between atoms: _440  and  _443
REMARK  188  A    between atoms: _443  and  _444
REMARK  189  A    between atoms: _447  and  _449
REMARK  190  A    between atoms: _449  and  _450
REMARK  191  A    between atoms: _449  and  _452
REMARK  192  A    between atoms: _452  and  _453
REMARK  193  A    between atoms: _458  and  _460
REMARK  194  A    between atoms: _460  and  _461
REMARK  195  A    between atoms: _460  and  _463
REMARK  196  A    between atoms: _463  and  _464
REMARK  197  A    between atoms: _470  and  _472
REMARK  198  A    between atoms: _472  and  _473
REMARK  199  A    between atoms: _472  and  _475
REMARK  200  A    between atoms: _478  and  _480
REMARK  201  A    between atoms: _480  and  _481
REMARK  202  A    between atoms: _480  and  _483
REMARK  203  A    between atoms: _486  and  _488
REMARK  204  A    between atoms: _488  and  _489
REMARK  205  A    between atoms: _491  and  _493
REMARK  206  A    between atoms: _493  and  _494
REMARK  207  A    between atoms: _493  and  _496
REMARK  208  A    between atoms: _496  and  _497
REMARK  209  A    between atoms: _499  and  _501
REMARK  210  A    between atoms: _501  and  _502
REMARK  211  A    between atoms: _501  and  _504
REMARK  212  A    between atoms: _504  and  _505
REMARK  213  A    between atoms: _508  and  _510
REMARK  214  A    between atoms: _510  and  _511
REMARK  215  A    between atoms: _510  and  _513
REMARK  216  A    between atoms: _513  and  _514
REMARK  217  A    between atoms: _514  and  _515
REMARK  218  A    between atoms: _515  and  MG_622
REMARK  219  A    between atoms: _517  and  _519
REMARK  220  A    between atoms: _519  and  _520
REMARK  221  A    between atoms: _519  and  _522
REMARK  222  A    between atoms: _522  and  _523
REMARK  223  A    between atoms: _528  and  _529
REMARK  224  A    between atoms: _531  and  _533
REMARK  225  A    between atoms: _533  and  _534
REMARK  226  A    between atoms: _533  and  _536
REMARK  227  A    between atoms: _536  and  _537
REMARK  228  A    between atoms: _542  and  _544
REMARK  229  A    between atoms: _544  and  _545
REMARK  230  A    between atoms: _544  and  _547
REMARK  231  A    between atoms: _547  and  _548
REMARK  232  A    between atoms: _548  and  _549
REMARK  233  A    between atoms: _552  and  _554
REMARK  234  A    between atoms: _554  and  _555
REMARK  235  A    between atoms: _554  and  _557
REMARK  236  A    between atoms: _557  and  _558
REMARK  237  A    between atoms: _561  and  _563
REMARK  238  A    between atoms: _563  and  _564
REMARK  239  A    between atoms: _563  and  _566
REMARK  240  A    between atoms: _566  and  _567
REMARK  241  A    between atoms: _567  and  _568
REMARK  242  A    between atoms: _568  and  _569
REMARK  243  A    between atoms: _578  and  _580
REMARK  244  A    between atoms: _580  and  _581
REMARK  245  A    between atoms: _580  and  _583
REMARK  246  A    between atoms: _585  and  _587
REMARK  247  A    between atoms: _587  and  _588
REMARK  248  A    between atoms: _587  and  _590
REMARK  249  A    between atoms: _592  and  _594
REMARK  250  A    between atoms: _594  and  _595
REMARK  251  A    between atoms: _594  and  _597
REMARK  252  A    between atoms: _597  and  _598
REMARK  253  A    between atoms: _601  and  _603
REMARK  254  A    between atoms: _603  and  _604
REMARK  255  A    between atoms: _603  and  _606
REMARK  256  A    between atoms: _609  and  _611
REMARK  257  A    between atoms: _611  and  _612
REMARK  258  A    between atoms: _611  and  _614
REMARK  259  A    between atoms: _614  and  _615
REMARK  260  A    between atoms: _615  and  _616
REMARK  261  A    between atoms: _616  and  _617
REMARK  262  A    between atoms: _617  and  _618
REMARK                            x       y       z     vdW  Elec       q    Type
REMARK                         _______ _______ _______ _____ _____    ______ ____
ROOT
ATOM      1  O   HOH     1      64.756  38.000  68.837  0.00  0.00    +0.000 OA
ENDROOT
TORSDOF 0
REMARK  Name = ../refined-set-2016/3ozg/3ozg_pocket.pdb
REMARK  262 active torsions:
REMARK  status: ('A' for Active; 'I' for Inactive)
REMARK    1  A    between atoms: _1  and  _3
REMARK    2  A    between atoms: _3  and  _4
REMARK    3  A    between atoms: _3  and  _6
REMARK    4  A    between atoms: _6  and  _7
REMARK    5  A    between atoms: _10  and  _12
REMARK    6  A    between atoms: _12  and  _13
REMARK    7  A    between atoms: _12  and  _15
REMARK    8  A    between atoms: _15  and  _16
REMARK    9  A    between atoms: _19  and  _21
REMARK   10  A    between atoms: _21  and  _22
REMARK   11  A    between atoms: _21  and  _24
REMARK   12  A    between atoms: _24  and  _25
REMARK   13  A    between atoms: _25  and  _26
REMARK   14  A    between atoms: _26  and  _27
REMARK   15  A    between atoms: _27  and  _28
REMARK   16  A    between atoms: _32  and  _34
REMARK   17  A    between atoms: _34  and  _35
REMARK   18  A    between atoms: _37  and  _39
REMARK   19  A    between atoms: _39  and  _40
REMARK   20  A    between atoms: _39  and  _42
REMARK   21  A    between atoms: _42  and  _43
REMARK   22  A    between atoms: _45  and  _47
REMARK   23  A    between atoms: _47  and  _48
REMARK   24  A    between atoms: _47  and  _50
REMARK   25  A    between atoms: _50  and  _51
REMARK   26  A    between atoms: _51  and  _52
REMARK   27  A    between atoms: _52  and  _53
REMARK   28  A    between atoms: _62  and  _64
REMARK   29  A    between atoms: _64  and  _65
REMARK   30  A    between atoms: _64  and  _67
REMARK   31  A    between atoms: _67  and  _68
REMARK   32  A    between atoms: _68  and  _69
REMARK   33  A    between atoms: _69  and  _70
REMARK   34  A    between atoms: _79  and  _81
REMARK   35  A    between atoms: _81  and  _82
REMARK   36  A    between atoms: _81  and  _84
REMARK   37  A    between atoms: _87  and  _89
REMARK   38  A    between atoms: _89  and  _90
REMARK   39  A    between atoms: _89  and  _92
REMARK   40  A    between atoms: _92  and  _93
REMARK   41  A    between atoms: _93  and  _94
REMARK   42  A    between atoms: _94  and  _95
REMARK   43  A    between atoms: _95  and  _96
REMARK   44  A    between atoms: _100  and  _102
REMARK   45  A    between atoms: _102  and  _103
REMARK   46  A    between atoms: _102  and  _105
REMARK   47  A    between atoms: _105  and  _106
REMARK   48  A    between atoms: _108  and  _110
REMARK   49  A    between atoms: _110  and  _111
REMARK   50  A    between atoms: _110  and  _113
REMARK   51  A    between atoms: _113  and  _114
REMARK   52  A    between atoms: _119  and  _120
REMARK   53  A    between atoms: _122  and  _124
REMARK   54  A    between atoms: _124  and  _125
REMARK   55  A    between atoms: _124  and  _127
REMARK   56  A    between atoms: _129  and  _131
REMARK   57  A    between atoms: _131  and  _132
REMARK   58  A    between atoms: _131  and  _134
REMARK   59  A    between atoms: _134  and  _135
REMARK   60  A    between atoms: _140  and  _142
REMARK   61  A    between atoms: _142  and  _143
REMARK   62  A    between atoms: _142  and  _145
REMARK   63  A    between atoms: _145  and  _146
REMARK   64  A    between atoms: _149  and  _151
REMARK   65  A    between atoms: _151  and  _152
REMARK   66  A    between atoms: _151  and  _154
REMARK   67  A    between atoms: _154  and  _155
REMARK   68  A    between atoms: _155  and  _156
REMARK   69  A    between atoms: _161  and  _163
REMARK   70  A    between atoms: _163  and  _164
REMARK   71  A    between atoms: _163  and  _166
REMARK   72  A    between atoms: _166  and  _167
REMARK   73  A    between atoms: _169  and  _171
REMARK   74  A    between atoms: _171  and  _172
REMARK   75  A    between atoms: _171  and  _174
REMARK   76  A    between atoms: _174  and  _175
REMARK   77  A    between atoms: _178  and  _180
REMARK   78  A    between atoms: _180  and  _181
REMARK   79  A    between atoms: _183  and  _185
REMARK   80  A    between atoms: _185  and  _186
REMARK   81  A    between atoms: _185  and  _188
REMARK   82  A    between atoms: _188  and  _189
REMARK   83  A    between atoms: _192  and  _194
REMARK   84  A    between atoms: _194  and  _195
REMARK   85  A    between atoms: _194  and  _197
REMARK   86  A    between atoms: _197  and  _198
REMARK   87  A    between atoms: _201  and  _203
REMARK   88  A    between atoms: _203  and  _204
REMARK   89  A    between atoms: _203  and  _206
REMARK   90  A    between atoms: _209  and  _211
REMARK   91  A    between atoms: _211  and  _212
REMARK   92  A    between atoms: _211  and  _214
REMARK   93  A    between atoms: _214  and  _215
REMARK   94  A    between atoms: _215  and  _216
REMARK   95  A    between atoms: _219  and  _221
REMARK   96  A    between atoms: _221  and  _222
REMARK   97  A    between atoms: _221  and  _224
REMARK   98  A    between atoms: _224  and  _225
REMARK   99  A    between atoms: _228  and  _230
REMARK  100  A    between atoms: _230  and  _231
REMARK  101  A    between atoms: _230  and  _233
REMARK  102  A    between atoms: _233  and  _234
REMARK  103  A    between atoms: _237  and  _239
REMARK  104  A    between atoms: _239  and  _240
REMARK  105  A    between atoms: _239  and  _242
REMARK  106  A    between atoms: _242  and  _243
REMARK  107  A    between atoms: _246  and  _248
REMARK  108  A    between atoms: _248  and  _249
REMARK  109  A    between atoms: _248  and  _251
REMARK  110  A    between atoms: _251  and  _252
REMARK  111  A    between atoms: _255  and  _257
REMARK  112  A    between atoms: _257  and  _258
REMARK  113  A    between atoms: _257  and  _260
REMARK  114  A    between atoms: _260  and  _261
REMARK  115  A    between atoms: _264  and  _266
REMARK  116  A    between atoms: _266  and  _267
REMARK  117  A    between atoms: _269  and  _271
REMARK  118  A    between atoms: _271  and  _272
REMARK  119  A    between atoms: _271  and  _274
REMARK  120  A    between atoms: _274  and  _275
REMARK  121  A    between atoms: _275  and  _276
REMARK  122  A    between atoms: _276  and  _277
REMARK  123  A    between atoms: _277  and  _278
REMARK  124  A    between atoms: _282  and  _284
REMARK  125  A    between atoms: _284  and  _285
REMARK  126  A    between atoms: _284  and  _287
REMARK  127  A    between atoms: _287  and  _288
REMARK  128  A    between atoms: _291  and  _293
REMARK  129  A    between atoms: _293  and  _294
REMARK  130  A    between atoms: _293  and  _296
REMARK  131  A    between atoms: _296  and  _297
REMARK  132  A    between atoms: _300  and  _302
REMARK  133  A    between atoms: _302  and  _303
REMARK  134  A    between atoms: _302  and  _305
REMARK  135  A    between atoms: _308  and  _310
REMARK  136  A    between atoms: _310  and  _311
REMARK  137  A    between atoms: _310  and  _313
REMARK  138  A    between atoms: _313  and  _314
REMARK  139  A    between atoms: _314  and  _315
REMARK  140  A    between atoms: _315  and  _316
REMARK  141  A    between atoms: _316  and  _317
REMARK  142  A    between atoms: _321  and  _323
REMARK  143  A    between atoms: _323  and  _324
REMARK  144  A    between atoms: _323  and  _326
REMARK  145  A    between atoms: _326  and  _327
REMARK  146  A    between atoms: _333  and  _335
REMARK  147  A    between atoms: _335  and  _336
REMARK  148  A    between atoms: _335  and  _338
REMARK  149  A    between atoms: _340  and  _342
REMARK  150  A    between atoms: _342  and  _343
REMARK  151  A    between atoms: _342  and  _345
REMARK  152  A    between atoms: _345  and  _346
REMARK  153  A    between atoms: _352  and  _354
REMARK  154  A    between atoms: _354  and  _355
REMARK  155  A    between atoms: _354  and  _357
REMARK  156  A    between atoms: _357  and  _358
REMARK  157  A    between atoms: _358  and  _359
REMARK  158  A    between atoms: _359  and  _360
REMARK  159  A    between atoms: _360  and  _361
REMARK  160  A    between atoms: _365  and  _367
REMARK  161  A    between atoms: _367  and  _368
REMARK  162  A    between atoms: _367  and  _370
REMARK  163  A    between atoms: _370  and  _371
REMARK  164  A    between atoms: _374  and  _376
REMARK  165  A    between atoms: _376  and  _377
REMARK  166  A    between atoms: _376  and  _379
REMARK  167  A    between atoms: _379  and  _380
REMARK  168  A    between atoms: _383  and  _385
REMARK  169  A    between atoms: _385  and  _386
REMARK  170  A    between atoms: _385  and  _388
REMARK  171  A    between atoms: _388  and  _389
REMARK  172  A    between atoms: _399  and  _401
REMARK  173  A    between atoms: _401  and  _402
REMARK  174  A    between atoms: _401  and  _404
REMARK  175  A    between atoms: _404  and  _405
REMARK  176  A    between atoms: _410  and  _412
REMARK  177  A    between atoms: _412  and  _413
REMARK  178  A    between atoms: _412  and  _415
REMARK  179  A    between atoms: _415  and  _416
REMARK  180  A    between atoms: _422  and  _424
REMARK  181  A    between atoms: _424  and  _425
REMARK  182  A    between atoms: _424  and  _427
REMARK  183  A    between atoms: _427  and  _428
REMARK  184  A    between atoms: _432  and  _433
REMARK  185  A    between atoms: _438  and  _440
REMARK  186  A    between atoms: _440  and  _441
REMARK  187  A    between atoms: _440  and  _443
REMARK  188  A    between atoms: _443  and  _444
REMARK  189  A    between atoms: _447  and  _449
REMARK  190  A    between atoms: _449  and  _450
REMARK  191  A    between atoms: _449  and  _452
REMARK  192  A    between atoms: _452  and  _453
REMARK  193  A    between atoms: _458  and  _460
REMARK  194  A    between atoms: _460  and  _461
REMARK  195  A    between atoms: _460  and  _463
REMARK  196  A    between atoms: _463  and  _464
REMARK  197  A    between atoms: _470  and  _472
REMARK  198  A    between atoms: _472  and  _473
REMARK  199  A    between atoms: _472  and  _475
REMARK  200  A    between atoms: _478  and  _480
REMARK  201  A    between atoms: _480  and  _481
REMARK  202  A    between atoms: _480  and  _483
REMARK  203  A    between atoms: _486  and  _488
REMARK  204  A    between atoms: _488  and  _489
REMARK  205  A    between atoms: _491  and  _493
REMARK  206  A    between atoms: _493  and  _494
REMARK  207  A    between atoms: _493  and  _496
REMARK  208  A    between atoms: _496  and  _497
REMARK  209  A    between atoms: _499  and  _501
REMARK  210  A    between atoms: _501  and  _502
REMARK  211  A    between atoms: _501  and  _504
REMARK  212  A    between atoms: _504  and  _505
REMARK  213  A    between atoms: _508  and  _510
REMARK  214  A    between atoms: _510  and  _511
REMARK  215  A    between atoms: _510  and  _513
REMARK  216  A    between atoms: _513  and  _514
REMARK  217  A    between atoms: _514  and  _515
REMARK  218  A    between atoms: _515  and  MG_622
REMARK  219  A    between atoms: _517  and  _519
REMARK  220  A    between atoms: _519  and  _520
REMARK  221  A    between atoms: _519  and  _522
REMARK  222  A    between atoms: _522  and  _523
REMARK  223  A    between atoms: _528  and  _529
REMARK  224  A    between atoms: _531  and  _533
REMARK  225  A    between atoms: _533  and  _534
REMARK  226  A    between atoms: _533  and  _536
REMARK  227  A    between atoms: _536  and  _537
REMARK  228  A    between atoms: _542  and  _544
REMARK  229  A    between atoms: _544  and  _545
REMARK  230  A    between atoms: _544  and  _547
REMARK  231  A    between atoms: _547  and  _548
REMARK  232  A    between atoms: _548  and  _549
REMARK  233  A    between atoms: _552  and  _554
REMARK  234  A    between atoms: _554  and  _555
REMARK  235  A    between atoms: _554  and  _557
REMARK  236  A    between atoms: _557  and  _558
REMARK  237  A    between atoms: _561  and  _563
REMARK  238  A    between atoms: _563  and  _564
REMARK  239  A    between atoms: _563  and  _566
REMARK  240  A    between atoms: _566  and  _567
REMARK  241  A    between atoms: _567  and  _568
REMARK  242  A    between atoms: _568  and  _569
REMARK  243  A    between atoms: _578  and  _580
REMARK  244  A    between atoms: _580  and  _581
REMARK  245  A    between atoms: _580  and  _583
REMARK  246  A    between atoms: _585  and  _587
REMARK  247  A    between atoms: _587  and  _588
REMARK  248  A    between atoms: _587  and  _590
REMARK  249  A    between atoms: _592  and  _594
REMARK  250  A    between atoms: _594  and  _595
REMARK  251  A    between atoms: _594  and  _597
REMARK  252  A    between atoms: _597  and  _598
REMARK  253  A    between atoms: _601  and  _603
REMARK  254  A    between atoms: _603  and  _604
REMARK  255  A    between atoms: _603  and  _606
REMARK  256  A    between atoms: _609  and  _611
REMARK  257  A    between atoms: _611  and  _612
REMARK  258  A    between atoms: _611  and  _614
REMARK  259  A    between atoms: _614  and  _615
REMARK  260  A    between atoms: _615  and  _616
REMARK  261  A    between atoms: _616  and  _617
REMARK  262  A    between atoms: _617  and  _618
REMARK                            x       y       z     vdW  Elec       q    Type
REMARK                         _______ _______ _______ _____ _____    ______ ____
ROOT
ATOM      1  O   HOH     1      65.258  32.017  70.646  0.00  0.00    +0.000 OA
ENDROOT
TORSDOF 0
REMARK  Name = ../refined-set-2016/3ozg/3ozg_pocket.pdb
REMARK  262 active torsions:
REMARK  status: ('A' for Active; 'I' for Inactive)
REMARK    1  A    between atoms: _1  and  _3
REMARK    2  A    between atoms: _3  and  _4
REMARK    3  A    between atoms: _3  and  _6
REMARK    4  A    between atoms: _6  and  _7
REMARK    5  A    between atoms: _10  and  _12
REMARK    6  A    between atoms: _12  and  _13
REMARK    7  A    between atoms: _12  and  _15
REMARK    8  A    between atoms: _15  and  _16
REMARK    9  A    between atoms: _19  and  _21
REMARK   10  A    between atoms: _21  and  _22
REMARK   11  A    between atoms: _21  and  _24
REMARK   12  A    between atoms: _24  and  _25
REMARK   13  A    between atoms: _25  and  _26
REMARK   14  A    between atoms: _26  and  _27
REMARK   15  A    between atoms: _27  and  _28
REMARK   16  A    between atoms: _32  and  _34
REMARK   17  A    between atoms: _34  and  _35
REMARK   18  A    between atoms: _37  and  _39
REMARK   19  A    between atoms: _39  and  _40
REMARK   20  A    between atoms: _39  and  _42
REMARK   21  A    between atoms: _42  and  _43
REMARK   22  A    between atoms: _45  and  _47
REMARK   23  A    between atoms: _47  and  _48
REMARK   24  A    between atoms: _47  and  _50
REMARK   25  A    between atoms: _50  and  _51
REMARK   26  A    between atoms: _51  and  _52
REMARK   27  A    between atoms: _52  and  _53
REMARK   28  A    between atoms: _62  and  _64
REMARK   29  A    between atoms: _64  and  _65
REMARK   30  A    between atoms: _64  and  _67
REMARK   31  A    between atoms: _67  and  _68
REMARK   32  A    between atoms: _68  and  _69
REMARK   33  A    between atoms: _69  and  _70
REMARK   34  A    between atoms: _79  and  _81
REMARK   35  A    between atoms: _81  and  _82
REMARK   36  A    between atoms: _81  and  _84
REMARK   37  A    between atoms: _87  and  _89
REMARK   38  A    between atoms: _89  and  _90
REMARK   39  A    between atoms: _89  and  _92
REMARK   40  A    between atoms: _92  and  _93
REMARK   41  A    between atoms: _93  and  _94
REMARK   42  A    between atoms: _94  and  _95
REMARK   43  A    between atoms: _95  and  _96
REMARK   44  A    between atoms: _100  and  _102
REMARK   45  A    between atoms: _102  and  _103
REMARK   46  A    between atoms: _102  and  _105
REMARK   47  A    between atoms: _105  and  _106
REMARK   48  A    between atoms: _108  and  _110
REMARK   49  A    between atoms: _110  and  _111
REMARK   50  A    between atoms: _110  and  _113
REMARK   51  A    between atoms: _113  and  _114
REMARK   52  A    between atoms: _119  and  _120
REMARK   53  A    between atoms: _122  and  _124
REMARK   54  A    between atoms: _124  and  _125
REMARK   55  A    between atoms: _124  and  _127
REMARK   56  A    between atoms: _129  and  _131
REMARK   57  A    between atoms: _131  and  _132
REMARK   58  A    between atoms: _131  and  _134
REMARK   59  A    between atoms: _134  and  _135
REMARK   60  A    between atoms: _140  and  _142
REMARK   61  A    between atoms: _142  and  _143
REMARK   62  A    between atoms: _142  and  _145
REMARK   63  A    between atoms: _145  and  _146
REMARK   64  A    between atoms: _149  and  _151
REMARK   65  A    between atoms: _151  and  _152
REMARK   66  A    between atoms: _151  and  _154
REMARK   67  A    between atoms: _154  and  _155
REMARK   68  A    between atoms: _155  and  _156
REMARK   69  A    between atoms: _161  and  _163
REMARK   70  A    between atoms: _163  and  _164
REMARK   71  A    between atoms: _163  and  _166
REMARK   72  A    between atoms: _166  and  _167
REMARK   73  A    between atoms: _169  and  _171
REMARK   74  A    between atoms: _171  and  _172
REMARK   75  A    between atoms: _171  and  _174
REMARK   76  A    between atoms: _174  and  _175
REMARK   77  A    between atoms: _178  and  _180
REMARK   78  A    between atoms: _180  and  _181
REMARK   79  A    between atoms: _183  and  _185
REMARK   80  A    between atoms: _185  and  _186
REMARK   81  A    between atoms: _185  and  _188
REMARK   82  A    between atoms: _188  and  _189
REMARK   83  A    between atoms: _192  and  _194
REMARK   84  A    between atoms: _194  and  _195
REMARK   85  A    between atoms: _194  and  _197
REMARK   86  A    between atoms: _197  and  _198
REMARK   87  A    between atoms: _201  and  _203
REMARK   88  A    between atoms: _203  and  _204
REMARK   89  A    between atoms: _203  and  _206
REMARK   90  A    between atoms: _209  and  _211
REMARK   91  A    between atoms: _211  and  _212
REMARK   92  A    between atoms: _211  and  _214
REMARK   93  A    between atoms: _214  and  _215
REMARK   94  A    between atoms: _215  and  _216
REMARK   95  A    between atoms: _219  and  _221
REMARK   96  A    between atoms: _221  and  _222
REMARK   97  A    between atoms: _221  and  _224
REMARK   98  A    between atoms: _224  and  _225
REMARK   99  A    between atoms: _228  and  _230
REMARK  100  A    between atoms: _230  and  _231
REMARK  101  A    between atoms: _230  and  _233
REMARK  102  A    between atoms: _233  and  _234
REMARK  103  A    between atoms: _237  and  _239
REMARK  104  A    between atoms: _239  and  _240
REMARK  105  A    between atoms: _239  and  _242
REMARK  106  A    between atoms: _242  and  _243
REMARK  107  A    between atoms: _246  and  _248
REMARK  108  A    between atoms: _248  and  _249
REMARK  109  A    between atoms: _248  and  _251
REMARK  110  A    between atoms: _251  and  _252
REMARK  111  A    between atoms: _255  and  _257
REMARK  112  A    between atoms: _257  and  _258
REMARK  113  A    between atoms: _257  and  _260
REMARK  114  A    between atoms: _260  and  _261
REMARK  115  A    between atoms: _264  and  _266
REMARK  116  A    between atoms: _266  and  _267
REMARK  117  A    between atoms: _269  and  _271
REMARK  118  A    between atoms: _271  and  _272
REMARK  119  A    between atoms: _271  and  _274
REMARK  120  A    between atoms: _274  and  _275
REMARK  121  A    between atoms: _275  and  _276
REMARK  122  A    between atoms: _276  and  _277
REMARK  123  A    between atoms: _277  and  _278
REMARK  124  A    between atoms: _282  and  _284
REMARK  125  A    between atoms: _284  and  _285
REMARK  126  A    between atoms: _284  and  _287
REMARK  127  A    between atoms: _287  and  _288
REMARK  128  A    between atoms: _291  and  _293
REMARK  129  A    between atoms: _293  and  _294
REMARK  130  A    between atoms: _293  and  _296
REMARK  131  A    between atoms: _296  and  _297
REMARK  132  A    between atoms: _300  and  _302
REMARK  133  A    between atoms: _302  and  _303
REMARK  134  A    between atoms: _302  and  _305
REMARK  135  A    between atoms: _308  and  _310
REMARK  136  A    between atoms: _310  and  _311
REMARK  137  A    between atoms: _310  and  _313
REMARK  138  A    between atoms: _313  and  _314
REMARK  139  A    between atoms: _314  and  _315
REMARK  140  A    between atoms: _315  and  _316
REMARK  141  A    between atoms: _316  and  _317
REMARK  142  A    between atoms: _321  and  _323
REMARK  143  A    between atoms: _323  and  _324
REMARK  144  A    between atoms: _323  and  _326
REMARK  145  A    between atoms: _326  and  _327
REMARK  146  A    between atoms: _333  and  _335
REMARK  147  A    between atoms: _335  and  _336
REMARK  148  A    between atoms: _335  and  _338
REMARK  149  A    between atoms: _340  and  _342
REMARK  150  A    between atoms: _342  and  _343
REMARK  151  A    between atoms: _342  and  _345
REMARK  152  A    between atoms: _345  and  _346
REMARK  153  A    between atoms: _352  and  _354
REMARK  154  A    between atoms: _354  and  _355
REMARK  155  A    between atoms: _354  and  _357
REMARK  156  A    between atoms: _357  and  _358
REMARK  157  A    between atoms: _358  and  _359
REMARK  158  A    between atoms: _359  and  _360
REMARK  159  A    between atoms: _360  and  _361
REMARK  160  A    between atoms: _365  and  _367
REMARK  161  A    between atoms: _367  and  _368
REMARK  162  A    between atoms: _367  and  _370
REMARK  163  A    between atoms: _370  and  _371
REMARK  164  A    between atoms: _374  and  _376
REMARK  165  A    between atoms: _376  and  _377
REMARK  166  A    between atoms: _376  and  _379
REMARK  167  A    between atoms: _379  and  _380
REMARK  168  A    between atoms: _383  and  _385
REMARK  169  A    between atoms: _385  and  _386
REMARK  170  A    between atoms: _385  and  _388
REMARK  171  A    between atoms: _388  and  _389
REMARK  172  A    between atoms: _399  and  _401
REMARK  173  A    between atoms: _401  and  _402
REMARK  174  A    between atoms: _401  and  _404
REMARK  175  A    between atoms: _404  and  _405
REMARK  176  A    between atoms: _410  and  _412
REMARK  177  A    between atoms: _412  and  _413
REMARK  178  A    between atoms: _412  and  _415
REMARK  179  A    between atoms: _415  and  _416
REMARK  180  A    between atoms: _422  and  _424
REMARK  181  A    between atoms: _424  and  _425
REMARK  182  A    between atoms: _424  and  _427
REMARK  183  A    between atoms: _427  and  _428
REMARK  184  A    between atoms: _432  and  _433
REMARK  185  A    between atoms: _438  and  _440
REMARK  186  A    between atoms: _440  and  _441
REMARK  187  A    between atoms: _440  and  _443
REMARK  188  A    between atoms: _443  and  _444
REMARK  189  A    between atoms: _447  and  _449
REMARK  190  A    between atoms: _449  and  _450
REMARK  191  A    between atoms: _449  and  _452
REMARK  192  A    between atoms: _452  and  _453
REMARK  193  A    between atoms: _458  and  _460
REMARK  194  A    between atoms: _460  and  _461
REMARK  195  A    between atoms: _460  and  _463
REMARK  196  A    between atoms: _463  and  _464
REMARK  197  A    between atoms: _470  and  _472
REMARK  198  A    between atoms: _472  and  _473
REMARK  199  A    between atoms: _472  and  _475
REMARK  200  A    between atoms: _478  and  _480
REMARK  201  A    between atoms: _480  and  _481
REMARK  202  A    between atoms: _480  and  _483
REMARK  203  A    between atoms: _486  and  _488
REMARK  204  A    between atoms: _488  and  _489
REMARK  205  A    between atoms: _491  and  _493
REMARK  206  A    between atoms: _493  and  _494
REMARK  207  A    between atoms: _493  and  _496
REMARK  208  A    between atoms: _496  and  _497
REMARK  209  A    between atoms: _499  and  _501
REMARK  210  A    between atoms: _501  and  _502
REMARK  211  A    between atoms: _501  and  _504
REMARK  212  A    between atoms: _504  and  _505
REMARK  213  A    between atoms: _508  and  _510
REMARK  214  A    between atoms: _510  and  _511
REMARK  215  A    between atoms: _510  and  _513
REMARK  216  A    between atoms: _513  and  _514
REMARK  217  A    between atoms: _514  and  _515
REMARK  218  A    between atoms: _515  and  MG_622
REMARK  219  A    between atoms: _517  and  _519
REMARK  220  A    between atoms: _519  and  _520
REMARK  221  A    between atoms: _519  and  _522
REMARK  222  A    between atoms: _522  and  _523
REMARK  223  A    between atoms: _528  and  _529
REMARK  224  A    between atoms: _531  and  _533
REMARK  225  A    between atoms: _533  and  _534
REMARK  226  A    between atoms: _533  and  _536
REMARK  227  A    between atoms: _536  and  _537
REMARK  228  A    between atoms: _542  and  _544
REMARK  229  A    between atoms: _544  and  _545
REMARK  230  A    between atoms: _544  and  _547
REMARK  231  A    between atoms: _547  and  _548
REMARK  232  A    between atoms: _548  and  _549
REMARK  233  A    between atoms: _552  and  _554
REMARK  234  A    between atoms: _554  and  _555
REMARK  235  A    between atoms: _554  and  _557
REMARK  236  A    between atoms: _557  and  _558
REMARK  237  A    between atoms: _561  and  _563
REMARK  238  A    between atoms: _563  and  _564
REMARK  239  A    between atoms: _563  and  _566
REMARK  240  A    between atoms: _566  and  _567
REMARK  241  A    between atoms: _567  and  _568
REMARK  242  A    between atoms: _568  and  _569
REMARK  243  A    between atoms: _578  and  _580
REMARK  244  A    between atoms: _580  and  _581
REMARK  245  A    between atoms: _580  and  _583
REMARK  246  A    between atoms: _585  and  _587
REMARK  247  A    between atoms: _587  and  _588
REMARK  248  A    between atoms: _587  and  _590
REMARK  249  A    between atoms: _592  and  _594
REMARK  250  A    between atoms: _594  and  _595
REMARK  251  A    between atoms: _594  and  _597
REMARK  252  A    between atoms: _597  and  _598
REMARK  253  A    between atoms: _601  and  _603
REMARK  254  A    between atoms: _603  and  _604
REMARK  255  A    between atoms: _603  and  _606
REMARK  256  A    between atoms: _609  and  _611
REMARK  257  A    between atoms: _611  and  _612
REMARK  258  A    between atoms: _611  and  _614
REMARK  259  A    between atoms: _614  and  _615
REMARK  260  A    between atoms: _615  and  _616
REMARK  261  A    between atoms: _616  and  _617
REMARK  262  A    between atoms: _617  and  _618
REMARK                            x       y       z     vdW  Elec       q    Type
REMARK                         _______ _______ _______ _____ _____    ______ ____
ROOT
ATOM      1  O   HOH     1      71.584  36.026  84.560  0.00  0.00    +0.000 OA
ENDROOT
TORSDOF 0
REMARK  Name = ../refined-set-2016/3ozg/3ozg_pocket.pdb
REMARK  262 active torsions:
REMARK  status: ('A' for Active; 'I' for Inactive)
REMARK    1  A    between atoms: _1  and  _3
REMARK    2  A    between atoms: _3  and  _4
REMARK    3  A    between atoms: _3  and  _6
REMARK    4  A    between atoms: _6  and  _7
REMARK    5  A    between atoms: _10  and  _12
REMARK    6  A    between atoms: _12  and  _13
REMARK    7  A    between atoms: _12  and  _15
REMARK    8  A    between atoms: _15  and  _16
REMARK    9  A    between atoms: _19  and  _21
REMARK   10  A    between atoms: _21  and  _22
REMARK   11  A    between atoms: _21  and  _24
REMARK   12  A    between atoms: _24  and  _25
REMARK   13  A    between atoms: _25  and  _26
REMARK   14  A    between atoms: _26  and  _27
REMARK   15  A    between atoms: _27  and  _28
REMARK   16  A    between atoms: _32  and  _34
REMARK   17  A    between atoms: _34  and  _35
REMARK   18  A    between atoms: _37  and  _39
REMARK   19  A    between atoms: _39  and  _40
REMARK   20  A    between atoms: _39  and  _42
REMARK   21  A    between atoms: _42  and  _43
REMARK   22  A    between atoms: _45  and  _47
REMARK   23  A    between atoms: _47  and  _48
REMARK   24  A    between atoms: _47  and  _50
REMARK   25  A    between atoms: _50  and  _51
REMARK   26  A    between atoms: _51  and  _52
REMARK   27  A    between atoms: _52  and  _53
REMARK   28  A    between atoms: _62  and  _64
REMARK   29  A    between atoms: _64  and  _65
REMARK   30  A    between atoms: _64  and  _67
REMARK   31  A    between atoms: _67  and  _68
REMARK   32  A    between atoms: _68  and  _69
REMARK   33  A    between atoms: _69  and  _70
REMARK   34  A    between atoms: _79  and  _81
REMARK   35  A    between atoms: _81  and  _82
REMARK   36  A    between atoms: _81  and  _84
REMARK   37  A    between atoms: _87  and  _89
REMARK   38  A    between atoms: _89  and  _90
REMARK   39  A    between atoms: _89  and  _92
REMARK   40  A    between atoms: _92  and  _93
REMARK   41  A    between atoms: _93  and  _94
REMARK   42  A    between atoms: _94  and  _95
REMARK   43  A    between atoms: _95  and  _96
REMARK   44  A    between atoms: _100  and  _102
REMARK   45  A    between atoms: _102  and  _103
REMARK   46  A    between atoms: _102  and  _105
REMARK   47  A    between atoms: _105  and  _106
REMARK   48  A    between atoms: _108  and  _110
REMARK   49  A    between atoms: _110  and  _111
REMARK   50  A    between atoms: _110  and  _113
REMARK   51  A    between atoms: _113  and  _114
REMARK   52  A    between atoms: _119  and  _120
REMARK   53  A    between atoms: _122  and  _124
REMARK   54  A    between atoms: _124  and  _125
REMARK   55  A    between atoms: _124  and  _127
REMARK   56  A    between atoms: _129  and  _131
REMARK   57  A    between atoms: _131  and  _132
REMARK   58  A    between atoms: _131  and  _134
REMARK   59  A    between atoms: _134  and  _135
REMARK   60  A    between atoms: _140  and  _142
REMARK   61  A    between atoms: _142  and  _143
REMARK   62  A    between atoms: _142  and  _145
REMARK   63  A    between atoms: _145  and  _146
REMARK   64  A    between atoms: _149  and  _151
REMARK   65  A    between atoms: _151  and  _152
REMARK   66  A    between atoms: _151  and  _154
REMARK   67  A    between atoms: _154  and  _155
REMARK   68  A    between atoms: _155  and  _156
REMARK   69  A    between atoms: _161  and  _163
REMARK   70  A    between atoms: _163  and  _164
REMARK   71  A    between atoms: _163  and  _166
REMARK   72  A    between atoms: _166  and  _167
REMARK   73  A    between atoms: _169  and  _171
REMARK   74  A    between atoms: _171  and  _172
REMARK   75  A    between atoms: _171  and  _174
REMARK   76  A    between atoms: _174  and  _175
REMARK   77  A    between atoms: _178  and  _180
REMARK   78  A    between atoms: _180  and  _181
REMARK   79  A    between atoms: _183  and  _185
REMARK   80  A    between atoms: _185  and  _186
REMARK   81  A    between atoms: _185  and  _188
REMARK   82  A    between atoms: _188  and  _189
REMARK   83  A    between atoms: _192  and  _194
REMARK   84  A    between atoms: _194  and  _195
REMARK   85  A    between atoms: _194  and  _197
REMARK   86  A    between atoms: _197  and  _198
REMARK   87  A    between atoms: _201  and  _203
REMARK   88  A    between atoms: _203  and  _204
REMARK   89  A    between atoms: _203  and  _206
REMARK   90  A    between atoms: _209  and  _211
REMARK   91  A    between atoms: _211  and  _212
REMARK   92  A    between atoms: _211  and  _214
REMARK   93  A    between atoms: _214  and  _215
REMARK   94  A    between atoms: _215  and  _216
REMARK   95  A    between atoms: _219  and  _221
REMARK   96  A    between atoms: _221  and  _222
REMARK   97  A    between atoms: _221  and  _224
REMARK   98  A    between atoms: _224  and  _225
REMARK   99  A    between atoms: _228  and  _230
REMARK  100  A    between atoms: _230  and  _231
REMARK  101  A    between atoms: _230  and  _233
REMARK  102  A    between atoms: _233  and  _234
REMARK  103  A    between atoms: _237  and  _239
REMARK  104  A    between atoms: _239  and  _240
REMARK  105  A    between atoms: _239  and  _242
REMARK  106  A    between atoms: _242  and  _243
REMARK  107  A    between atoms: _246  and  _248
REMARK  108  A    between atoms: _248  and  _249
REMARK  109  A    between atoms: _248  and  _251
REMARK  110  A    between atoms: _251  and  _252
REMARK  111  A    between atoms: _255  and  _257
REMARK  112  A    between atoms: _257  and  _258
REMARK  113  A    between atoms: _257  and  _260
REMARK  114  A    between atoms: _260  and  _261
REMARK  115  A    between atoms: _264  and  _266
REMARK  116  A    between atoms: _266  and  _267
REMARK  117  A    between atoms: _269  and  _271
REMARK  118  A    between atoms: _271  and  _272
REMARK  119  A    between atoms: _271  and  _274
REMARK  120  A    between atoms: _274  and  _275
REMARK  121  A    between atoms: _275  and  _276
REMARK  122  A    between atoms: _276  and  _277
REMARK  123  A    between atoms: _277  and  _278
REMARK  124  A    between atoms: _282  and  _284
REMARK  125  A    between atoms: _284  and  _285
REMARK  126  A    between atoms: _284  and  _287
REMARK  127  A    between atoms: _287  and  _288
REMARK  128  A    between atoms: _291  and  _293
REMARK  129  A    between atoms: _293  and  _294
REMARK  130  A    between atoms: _293  and  _296
REMARK  131  A    between atoms: _296  and  _297
REMARK  132  A    between atoms: _300  and  _302
REMARK  133  A    between atoms: _302  and  _303
REMARK  134  A    between atoms: _302  and  _305
REMARK  135  A    between atoms: _308  and  _310
REMARK  136  A    between atoms: _310  and  _311
REMARK  137  A    between atoms: _310  and  _313
REMARK  138  A    between atoms: _313  and  _314
REMARK  139  A    between atoms: _314  and  _315
REMARK  140  A    between atoms: _315  and  _316
REMARK  141  A    between atoms: _316  and  _317
REMARK  142  A    between atoms: _321  and  _323
REMARK  143  A    between atoms: _323  and  _324
REMARK  144  A    between atoms: _323  and  _326
REMARK  145  A    between atoms: _326  and  _327
REMARK  146  A    between atoms: _333  and  _335
REMARK  147  A    between atoms: _335  and  _336
REMARK  148  A    between atoms: _335  and  _338
REMARK  149  A    between atoms: _340  and  _342
REMARK  150  A    between atoms: _342  and  _343
REMARK  151  A    between atoms: _342  and  _345
REMARK  152  A    between atoms: _345  and  _346
REMARK  153  A    between atoms: _352  and  _354
REMARK  154  A    between atoms: _354  and  _355
REMARK  155  A    between atoms: _354  and  _357
REMARK  156  A    between atoms: _357  and  _358
REMARK  157  A    between atoms: _358  and  _359
REMARK  158  A    between atoms: _359  and  _360
REMARK  159  A    between atoms: _360  and  _361
REMARK  160  A    between atoms: _365  and  _367
REMARK  161  A    between atoms: _367  and  _368
REMARK  162  A    between atoms: _367  and  _370
REMARK  163  A    between atoms: _370  and  _371
REMARK  164  A    between atoms: _374  and  _376
REMARK  165  A    between atoms: _376  and  _377
REMARK  166  A    between atoms: _376  and  _379
REMARK  167  A    between atoms: _379  and  _380
REMARK  168  A    between atoms: _383  and  _385
REMARK  169  A    between atoms: _385  and  _386
REMARK  170  A    between atoms: _385  and  _388
REMARK  171  A    between atoms: _388  and  _389
REMARK  172  A    between atoms: _399  and  _401
REMARK  173  A    between atoms: _401  and  _402
REMARK  174  A    between atoms: _401  and  _404
REMARK  175  A    between atoms: _404  and  _405
REMARK  176  A    between atoms: _410  and  _412
REMARK  177  A    between atoms: _412  and  _413
REMARK  178  A    between atoms: _412  and  _415
REMARK  179  A    between atoms: _415  and  _416
REMARK  180  A    between atoms: _422  and  _424
REMARK  181  A    between atoms: _424  and  _425
REMARK  182  A    between atoms: _424  and  _427
REMARK  183  A    between atoms: _427  and  _428
REMARK  184  A    between atoms: _432  and  _433
REMARK  185  A    between atoms: _438  and  _440
REMARK  186  A    between atoms: _440  and  _441
REMARK  187  A    between atoms: _440  and  _443
REMARK  188  A    between atoms: _443  and  _444
REMARK  189  A    between atoms: _447  and  _449
REMARK  190  A    between atoms: _449  and  _450
REMARK  191  A    between atoms: _449  and  _452
REMARK  192  A    between atoms: _452  and  _453
REMARK  193  A    between atoms: _458  and  _460
REMARK  194  A    between atoms: _460  and  _461
REMARK  195  A    between atoms: _460  and  _463
REMARK  196  A    between atoms: _463  and  _464
REMARK  197  A    between atoms: _470  and  _472
REMARK  198  A    between atoms: _472  and  _473
REMARK  199  A    between atoms: _472  and  _475
REMARK  200  A    between atoms: _478  and  _480
REMARK  201  A    between atoms: _480  and  _481
REMARK  202  A    between atoms: _480  and  _483
REMARK  203  A    between atoms: _486  and  _488
REMARK  204  A    between atoms: _488  and  _489
REMARK  205  A    between atoms: _491  and  _493
REMARK  206  A    between atoms: _493  and  _494
REMARK  207  A    between atoms: _493  and  _496
REMARK  208  A    between atoms: _496  and  _497
REMARK  209  A    between atoms: _499  and  _501
REMARK  210  A    between atoms: _501  and  _502
REMARK  211  A    between atoms: _501  and  _504
REMARK  212  A    between atoms: _504  and  _505
REMARK  213  A    between atoms: _508  and  _510
REMARK  214  A    between atoms: _510  and  _511
REMARK  215  A    between atoms: _510  and  _513
REMARK  216  A    between atoms: _513  and  _514
REMARK  217  A    between atoms: _514  and  _515
REMARK  218  A    between atoms: _515  and  MG_622
REMARK  219  A    between atoms: _517  and  _519
REMARK  220  A    between atoms: _519  and  _520
REMARK  221  A    between atoms: _519  and  _522
REMARK  222  A    between atoms: _522  and  _523
REMARK  223  A    between atoms: _528  and  _529
REMARK  224  A    between atoms: _531  and  _533
REMARK  225  A    between atoms: _533  and  _534
REMARK  226  A    between atoms: _533  and  _536
REMARK  227  A    between atoms: _536  and  _537
REMARK  228  A    between atoms: _542  and  _544
REMARK  229  A    between atoms: _544  and  _545
REMARK  230  A    between atoms: _544  and  _547
REMARK  231  A    between atoms: _547  and  _548
REMARK  232  A    between atoms: _548  and  _549
REMARK  233  A    between atoms: _552  and  _554
REMARK  234  A    between atoms: _554  and  _555
REMARK  235  A    between atoms: _554  and  _557
REMARK  236  A    between atoms: _557  and  _558
REMARK  237  A    between atoms: _561  and  _563
REMARK  238  A    between atoms: _563  and  _564
REMARK  239  A    between atoms: _563  and  _566
REMARK  240  A    between atoms: _566  and  _567
REMARK  241  A    between atoms: _567  and  _568
REMARK  242  A    between atoms: _568  and  _569
REMARK  243  A    between atoms: _578  and  _580
REMARK  244  A    between atoms: _580  and  _581
REMARK  245  A    between atoms: _580  and  _583
REMARK  246  A    between atoms: _585  and  _587
REMARK  247  A    between atoms: _587  and  _588
REMARK  248  A    between atoms: _587  and  _590
REMARK  249  A    between atoms: _592  and  _594
REMARK  250  A    between atoms: _594  and  _595
REMARK  251  A    between atoms: _594  and  _597
REMARK  252  A    between atoms: _597  and  _598
REMARK  253  A    between atoms: _601  and  _603
REMARK  254  A    between atoms: _603  and  _604
REMARK  255  A    between atoms: _603  and  _606
REMARK  256  A    between atoms: _609  and  _611
REMARK  257  A    between atoms: _611  and  _612
REMARK  258  A    between atoms: _611  and  _614
REMARK  259  A    between atoms: _614  and  _615
REMARK  260  A    between atoms: _615  and  _616
REMARK  261  A    between atoms: _616  and  _617
REMARK  262  A    between atoms: _617  and  _618
REMARK                            x       y       z     vdW  Elec       q    Type
REMARK                         _______ _______ _______ _____ _____    ______ ____
ROOT
ATOM      1  O   HOH     1      60.856  32.850  71.663  0.00  0.00    +0.000 OA
ENDROOT
TORSDOF 0
REMARK  Name = ../refined-set-2016/3ozg/3ozg_pocket.pdb
REMARK  262 active torsions:
REMARK  status: ('A' for Active; 'I' for Inactive)
REMARK    1  A    between atoms: _1  and  _3
REMARK    2  A    between atoms: _3  and  _4
REMARK    3  A    between atoms: _3  and  _6
REMARK    4  A    between atoms: _6  and  _7
REMARK    5  A    between atoms: _10  and  _12
REMARK    6  A    between atoms: _12  and  _13
REMARK    7  A    between atoms: _12  and  _15
REMARK    8  A    between atoms: _15  and  _16
REMARK    9  A    between atoms: _19  and  _21
REMARK   10  A    between atoms: _21  and  _22
REMARK   11  A    between atoms: _21  and  _24
REMARK   12  A    between atoms: _24  and  _25
REMARK   13  A    between atoms: _25  and  _26
REMARK   14  A    between atoms: _26  and  _27
REMARK   15  A    between atoms: _27  and  _28
REMARK   16  A    between atoms: _32  and  _34
REMARK   17  A    between atoms: _34  and  _35
REMARK   18  A    between atoms: _37  and  _39
REMARK   19  A    between atoms: _39  and  _40
REMARK   20  A    between atoms: _39  and  _42
REMARK   21  A    between atoms: _42  and  _43
REMARK   22  A    between atoms: _45  and  _47
REMARK   23  A    between atoms: _47  and  _48
REMARK   24  A    between atoms: _47  and  _50
REMARK   25  A    between atoms: _50  and  _51
REMARK   26  A    between atoms: _51  and  _52
REMARK   27  A    between atoms: _52  and  _53
REMARK   28  A    between atoms: _62  and  _64
REMARK   29  A    between atoms: _64  and  _65
REMARK   30  A    between atoms: _64  and  _67
REMARK   31  A    between atoms: _67  and  _68
REMARK   32  A    between atoms: _68  and  _69
REMARK   33  A    between atoms: _69  and  _70
REMARK   34  A    between atoms: _79  and  _81
REMARK   35  A    between atoms: _81  and  _82
REMARK   36  A    between atoms: _81  and  _84
REMARK   37  A    between atoms: _87  and  _89
REMARK   38  A    between atoms: _89  and  _90
REMARK   39  A    between atoms: _89  and  _92
REMARK   40  A    between atoms: _92  and  _93
REMARK   41  A    between atoms: _93  and  _94
REMARK   42  A    between atoms: _94  and  _95
REMARK   43  A    between atoms: _95  and  _96
REMARK   44  A    between atoms: _100  and  _102
REMARK   45  A    between atoms: _102  and  _103
REMARK   46  A    between atoms: _102  and  _105
REMARK   47  A    between atoms: _105  and  _106
REMARK   48  A    between atoms: _108  and  _110
REMARK   49  A    between atoms: _110  and  _111
REMARK   50  A    between atoms: _110  and  _113
REMARK   51  A    between atoms: _113  and  _114
REMARK   52  A    between atoms: _119  and  _120
REMARK   53  A    between atoms: _122  and  _124
REMARK   54  A    between atoms: _124  and  _125
REMARK   55  A    between atoms: _124  and  _127
REMARK   56  A    between atoms: _129  and  _131
REMARK   57  A    between atoms: _131  and  _132
REMARK   58  A    between atoms: _131  and  _134
REMARK   59  A    between atoms: _134  and  _135
REMARK   60  A    between atoms: _140  and  _142
REMARK   61  A    between atoms: _142  and  _143
REMARK   62  A    between atoms: _142  and  _145
REMARK   63  A    between atoms: _145  and  _146
REMARK   64  A    between atoms: _149  and  _151
REMARK   65  A    between atoms: _151  and  _152
REMARK   66  A    between atoms: _151  and  _154
REMARK   67  A    between atoms: _154  and  _155
REMARK   68  A    between atoms: _155  and  _156
REMARK   69  A    between atoms: _161  and  _163
REMARK   70  A    between atoms: _163  and  _164
REMARK   71  A    between atoms: _163  and  _166
REMARK   72  A    between atoms: _166  and  _167
REMARK   73  A    between atoms: _169  and  _171
REMARK   74  A    between atoms: _171  and  _172
REMARK   75  A    between atoms: _171  and  _174
REMARK   76  A    between atoms: _174  and  _175
REMARK   77  A    between atoms: _178  and  _180
REMARK   78  A    between atoms: _180  and  _181
REMARK   79  A    between atoms: _183  and  _185
REMARK   80  A    between atoms: _185  and  _186
REMARK   81  A    between atoms: _185  and  _188
REMARK   82  A    between atoms: _188  and  _189
REMARK   83  A    between atoms: _192  and  _194
REMARK   84  A    between atoms: _194  and  _195
REMARK   85  A    between atoms: _194  and  _197
REMARK   86  A    between atoms: _197  and  _198
REMARK   87  A    between atoms: _201  and  _203
REMARK   88  A    between atoms: _203  and  _204
REMARK   89  A    between atoms: _203  and  _206
REMARK   90  A    between atoms: _209  and  _211
REMARK   91  A    between atoms: _211  and  _212
REMARK   92  A    between atoms: _211  and  _214
REMARK   93  A    between atoms: _214  and  _215
REMARK   94  A    between atoms: _215  and  _216
REMARK   95  A    between atoms: _219  and  _221
REMARK   96  A    between atoms: _221  and  _222
REMARK   97  A    between atoms: _221  and  _224
REMARK   98  A    between atoms: _224  and  _225
REMARK   99  A    between atoms: _228  and  _230
REMARK  100  A    between atoms: _230  and  _231
REMARK  101  A    between atoms: _230  and  _233
REMARK  102  A    between atoms: _233  and  _234
REMARK  103  A    between atoms: _237  and  _239
REMARK  104  A    between atoms: _239  and  _240
REMARK  105  A    between atoms: _239  and  _242
REMARK  106  A    between atoms: _242  and  _243
REMARK  107  A    between atoms: _246  and  _248
REMARK  108  A    between atoms: _248  and  _249
REMARK  109  A    between atoms: _248  and  _251
REMARK  110  A    between atoms: _251  and  _252
REMARK  111  A    between atoms: _255  and  _257
REMARK  112  A    between atoms: _257  and  _258
REMARK  113  A    between atoms: _257  and  _260
REMARK  114  A    between atoms: _260  and  _261
REMARK  115  A    between atoms: _264  and  _266
REMARK  116  A    between atoms: _266  and  _267
REMARK  117  A    between atoms: _269  and  _271
REMARK  118  A    between atoms: _271  and  _272
REMARK  119  A    between atoms: _271  and  _274
REMARK  120  A    between atoms: _274  and  _275
REMARK  121  A    between atoms: _275  and  _276
REMARK  122  A    between atoms: _276  and  _277
REMARK  123  A    between atoms: _277  and  _278
REMARK  124  A    between atoms: _282  and  _284
REMARK  125  A    between atoms: _284  and  _285
REMARK  126  A    between atoms: _284  and  _287
REMARK  127  A    between atoms: _287  and  _288
REMARK  128  A    between atoms: _291  and  _293
REMARK  129  A    between atoms: _293  and  _294
REMARK  130  A    between atoms: _293  and  _296
REMARK  131  A    between atoms: _296  and  _297
REMARK  132  A    between atoms: _300  and  _302
REMARK  133  A    between atoms: _302  and  _303
REMARK  134  A    between atoms: _302  and  _305
REMARK  135  A    between atoms: _308  and  _310
REMARK  136  A    between atoms: _310  and  _311
REMARK  137  A    between atoms: _310  and  _313
REMARK  138  A    between atoms: _313  and  _314
REMARK  139  A    between atoms: _314  and  _315
REMARK  140  A    between atoms: _315  and  _316
REMARK  141  A    between atoms: _316  and  _317
REMARK  142  A    between atoms: _321  and  _323
REMARK  143  A    between atoms: _323  and  _324
REMARK  144  A    between atoms: _323  and  _326
REMARK  145  A    between atoms: _326  and  _327
REMARK  146  A    between atoms: _333  and  _335
REMARK  147  A    between atoms: _335  and  _336
REMARK  148  A    between atoms: _335  and  _338
REMARK  149  A    between atoms: _340  and  _342
REMARK  150  A    between atoms: _342  and  _343
REMARK  151  A    between atoms: _342  and  _345
REMARK  152  A    between atoms: _345  and  _346
REMARK  153  A    between atoms: _352  and  _354
REMARK  154  A    between atoms: _354  and  _355
REMARK  155  A    between atoms: _354  and  _357
REMARK  156  A    between atoms: _357  and  _358
REMARK  157  A    between atoms: _358  and  _359
REMARK  158  A    between atoms: _359  and  _360
REMARK  159  A    between atoms: _360  and  _361
REMARK  160  A    between atoms: _365  and  _367
REMARK  161  A    between atoms: _367  and  _368
REMARK  162  A    between atoms: _367  and  _370
REMARK  163  A    between atoms: _370  and  _371
REMARK  164  A    between atoms: _374  and  _376
REMARK  165  A    between atoms: _376  and  _377
REMARK  166  A    between atoms: _376  and  _379
REMARK  167  A    between atoms: _379  and  _380
REMARK  168  A    between atoms: _383  and  _385
REMARK  169  A    between atoms: _385  and  _386
REMARK  170  A    between atoms: _385  and  _388
REMARK  171  A    between atoms: _388  and  _389
REMARK  172  A    between atoms: _399  and  _401
REMARK  173  A    between atoms: _401  and  _402
REMARK  174  A    between atoms: _401  and  _404
REMARK  175  A    between atoms: _404  and  _405
REMARK  176  A    between atoms: _410  and  _412
REMARK  177  A    between atoms: _412  and  _413
REMARK  178  A    between atoms: _412  and  _415
REMARK  179  A    between atoms: _415  and  _416
REMARK  180  A    between atoms: _422  and  _424
REMARK  181  A    between atoms: _424  and  _425
REMARK  182  A    between atoms: _424  and  _427
REMARK  183  A    between atoms: _427  and  _428
REMARK  184  A    between atoms: _432  and  _433
REMARK  185  A    between atoms: _438  and  _440
REMARK  186  A    between atoms: _440  and  _441
REMARK  187  A    between atoms: _440  and  _443
REMARK  188  A    between atoms: _443  and  _444
REMARK  189  A    between atoms: _447  and  _449
REMARK  190  A    between atoms: _449  and  _450
REMARK  191  A    between atoms: _449  and  _452
REMARK  192  A    between atoms: _452  and  _453
REMARK  193  A    between atoms: _458  and  _460
REMARK  194  A    between atoms: _460  and  _461
REMARK  195  A    between atoms: _460  and  _463
REMARK  196  A    between atoms: _463  and  _464
REMARK  197  A    between atoms: _470  and  _472
REMARK  198  A    between atoms: _472  and  _473
REMARK  199  A    between atoms: _472  and  _475
REMARK  200  A    between atoms: _478  and  _480
REMARK  201  A    between atoms: _480  and  _481
REMARK  202  A    between atoms: _480  and  _483
REMARK  203  A    between atoms: _486  and  _488
REMARK  204  A    between atoms: _488  and  _489
REMARK  205  A    between atoms: _491  and  _493
REMARK  206  A    between atoms: _493  and  _494
REMARK  207  A    between atoms: _493  and  _496
REMARK  208  A    between atoms: _496  and  _497
REMARK  209  A    between atoms: _499  and  _501
REMARK  210  A    between atoms: _501  and  _502
REMARK  211  A    between atoms: _501  and  _504
REMARK  212  A    between atoms: _504  and  _505
REMARK  213  A    between atoms: _508  and  _510
REMARK  214  A    between atoms: _510  and  _511
REMARK  215  A    between atoms: _510  and  _513
REMARK  216  A    between atoms: _513  and  _514
REMARK  217  A    between atoms: _514  and  _515
REMARK  218  A    between atoms: _515  and  MG_622
REMARK  219  A    between atoms: _517  and  _519
REMARK  220  A    between atoms: _519  and  _520
REMARK  221  A    between atoms: _519  and  _522
REMARK  222  A    between atoms: _522  and  _523
REMARK  223  A    between atoms: _528  and  _529
REMARK  224  A    between atoms: _531  and  _533
REMARK  225  A    between atoms: _533  and  _534
REMARK  226  A    between atoms: _533  and  _536
REMARK  227  A    between atoms: _536  and  _537
REMARK  228  A    between atoms: _542  and  _544
REMARK  229  A    between atoms: _544  and  _545
REMARK  230  A    between atoms: _544  and  _547
REMARK  231  A    between atoms: _547  and  _548
REMARK  232  A    between atoms: _548  and  _549
REMARK  233  A    between atoms: _552  and  _554
REMARK  234  A    between atoms: _554  and  _555
REMARK  235  A    between atoms: _554  and  _557
REMARK  236  A    between atoms: _557  and  _558
REMARK  237  A    between atoms: _561  and  _563
REMARK  238  A    between atoms: _563  and  _564
REMARK  239  A    between atoms: _563  and  _566
REMARK  240  A    between atoms: _566  and  _567
REMARK  241  A    between atoms: _567  and  _568
REMARK  242  A    between atoms: _568  and  _569
REMARK  243  A    between atoms: _578  and  _580
REMARK  244  A    between atoms: _580  and  _581
REMARK  245  A    between atoms: _580  and  _583
REMARK  246  A    between atoms: _585  and  _587
REMARK  247  A    between atoms: _587  and  _588
REMARK  248  A    between atoms: _587  and  _590
REMARK  249  A    between atoms: _592  and  _594
REMARK  250  A    between atoms: _594  and  _595
REMARK  251  A    between atoms: _594  and  _597
REMARK  252  A    between atoms: _597  and  _598
REMARK  253  A    between atoms: _601  and  _603
REMARK  254  A    between atoms: _603  and  _604
REMARK  255  A    between atoms: _603  and  _606
REMARK  256  A    between atoms: _609  and  _611
REMARK  257  A    between atoms: _611  and  _612
REMARK  258  A    between atoms: _611  and  _614
REMARK  259  A    between atoms: _614  and  _615
REMARK  260  A    between atoms: _615  and  _616
REMARK  261  A    between atoms: _616  and  _617
REMARK  262  A    between atoms: _617  and  _618
REMARK                            x       y       z     vdW  Elec       q    Type
REMARK                         _______ _______ _______ _____ _____    ______ ____
ROOT
ATOM      1  O   HOH     1      65.175  30.204  68.645  0.00  0.00    +0.000 OA
ENDROOT
TORSDOF 0
REMARK  Name = ../refined-set-2016/3ozg/3ozg_pocket.pdb
REMARK  262 active torsions:
REMARK  status: ('A' for Active; 'I' for Inactive)
REMARK    1  A    between atoms: _1  and  _3
REMARK    2  A    between atoms: _3  and  _4
REMARK    3  A    between atoms: _3  and  _6
REMARK    4  A    between atoms: _6  and  _7
REMARK    5  A    between atoms: _10  and  _12
REMARK    6  A    between atoms: _12  and  _13
REMARK    7  A    between atoms: _12  and  _15
REMARK    8  A    between atoms: _15  and  _16
REMARK    9  A    between atoms: _19  and  _21
REMARK   10  A    between atoms: _21  and  _22
REMARK   11  A    between atoms: _21  and  _24
REMARK   12  A    between atoms: _24  and  _25
REMARK   13  A    between atoms: _25  and  _26
REMARK   14  A    between atoms: _26  and  _27
REMARK   15  A    between atoms: _27  and  _28
REMARK   16  A    between atoms: _32  and  _34
REMARK   17  A    between atoms: _34  and  _35
REMARK   18  A    between atoms: _37  and  _39
REMARK   19  A    between atoms: _39  and  _40
REMARK   20  A    between atoms: _39  and  _42
REMARK   21  A    between atoms: _42  and  _43
REMARK   22  A    between atoms: _45  and  _47
REMARK   23  A    between atoms: _47  and  _48
REMARK   24  A    between atoms: _47  and  _50
REMARK   25  A    between atoms: _50  and  _51
REMARK   26  A    between atoms: _51  and  _52
REMARK   27  A    between atoms: _52  and  _53
REMARK   28  A    between atoms: _62  and  _64
REMARK   29  A    between atoms: _64  and  _65
REMARK   30  A    between atoms: _64  and  _67
REMARK   31  A    between atoms: _67  and  _68
REMARK   32  A    between atoms: _68  and  _69
REMARK   33  A    between atoms: _69  and  _70
REMARK   34  A    between atoms: _79  and  _81
REMARK   35  A    between atoms: _81  and  _82
REMARK   36  A    between atoms: _81  and  _84
REMARK   37  A    between atoms: _87  and  _89
REMARK   38  A    between atoms: _89  and  _90
REMARK   39  A    between atoms: _89  and  _92
REMARK   40  A    between atoms: _92  and  _93
REMARK   41  A    between atoms: _93  and  _94
REMARK   42  A    between atoms: _94  and  _95
REMARK   43  A    between atoms: _95  and  _96
REMARK   44  A    between atoms: _100  and  _102
REMARK   45  A    between atoms: _102  and  _103
REMARK   46  A    between atoms: _102  and  _105
REMARK   47  A    between atoms: _105  and  _106
REMARK   48  A    between atoms: _108  and  _110
REMARK   49  A    between atoms: _110  and  _111
REMARK   50  A    between atoms: _110  and  _113
REMARK   51  A    between atoms: _113  and  _114
REMARK   52  A    between atoms: _119  and  _120
REMARK   53  A    between atoms: _122  and  _124
REMARK   54  A    between atoms: _124  and  _125
REMARK   55  A    between atoms: _124  and  _127
REMARK   56  A    between atoms: _129  and  _131
REMARK   57  A    between atoms: _131  and  _132
REMARK   58  A    between atoms: _131  and  _134
REMARK   59  A    between atoms: _134  and  _135
REMARK   60  A    between atoms: _140  and  _142
REMARK   61  A    between atoms: _142  and  _143
REMARK   62  A    between atoms: _142  and  _145
REMARK   63  A    between atoms: _145  and  _146
REMARK   64  A    between atoms: _149  and  _151
REMARK   65  A    between atoms: _151  and  _152
REMARK   66  A    between atoms: _151  and  _154
REMARK   67  A    between atoms: _154  and  _155
REMARK   68  A    between atoms: _155  and  _156
REMARK   69  A    between atoms: _161  and  _163
REMARK   70  A    between atoms: _163  and  _164
REMARK   71  A    between atoms: _163  and  _166
REMARK   72  A    between atoms: _166  and  _167
REMARK   73  A    between atoms: _169  and  _171
REMARK   74  A    between atoms: _171  and  _172
REMARK   75  A    between atoms: _171  and  _174
REMARK   76  A    between atoms: _174  and  _175
REMARK   77  A    between atoms: _178  and  _180
REMARK   78  A    between atoms: _180  and  _181
REMARK   79  A    between atoms: _183  and  _185
REMARK   80  A    between atoms: _185  and  _186
REMARK   81  A    between atoms: _185  and  _188
REMARK   82  A    between atoms: _188  and  _189
REMARK   83  A    between atoms: _192  and  _194
REMARK   84  A    between atoms: _194  and  _195
REMARK   85  A    between atoms: _194  and  _197
REMARK   86  A    between atoms: _197  and  _198
REMARK   87  A    between atoms: _201  and  _203
REMARK   88  A    between atoms: _203  and  _204
REMARK   89  A    between atoms: _203  and  _206
REMARK   90  A    between atoms: _209  and  _211
REMARK   91  A    between atoms: _211  and  _212
REMARK   92  A    between atoms: _211  and  _214
REMARK   93  A    between atoms: _214  and  _215
REMARK   94  A    between atoms: _215  and  _216
REMARK   95  A    between atoms: _219  and  _221
REMARK   96  A    between atoms: _221  and  _222
REMARK   97  A    between atoms: _221  and  _224
REMARK   98  A    between atoms: _224  and  _225
REMARK   99  A    between atoms: _228  and  _230
REMARK  100  A    between atoms: _230  and  _231
REMARK  101  A    between atoms: _230  and  _233
REMARK  102  A    between atoms: _233  and  _234
REMARK  103  A    between atoms: _237  and  _239
REMARK  104  A    between atoms: _239  and  _240
REMARK  105  A    between atoms: _239  and  _242
REMARK  106  A    between atoms: _242  and  _243
REMARK  107  A    between atoms: _246  and  _248
REMARK  108  A    between atoms: _248  and  _249
REMARK  109  A    between atoms: _248  and  _251
REMARK  110  A    between atoms: _251  and  _252
REMARK  111  A    between atoms: _255  and  _257
REMARK  112  A    between atoms: _257  and  _258
REMARK  113  A    between atoms: _257  and  _260
REMARK  114  A    between atoms: _260  and  _261
REMARK  115  A    between atoms: _264  and  _266
REMARK  116  A    between atoms: _266  and  _267
REMARK  117  A    between atoms: _269  and  _271
REMARK  118  A    between atoms: _271  and  _272
REMARK  119  A    between atoms: _271  and  _274
REMARK  120  A    between atoms: _274  and  _275
REMARK  121  A    between atoms: _275  and  _276
REMARK  122  A    between atoms: _276  and  _277
REMARK  123  A    between atoms: _277  and  _278
REMARK  124  A    between atoms: _282  and  _284
REMARK  125  A    between atoms: _284  and  _285
REMARK  126  A    between atoms: _284  and  _287
REMARK  127  A    between atoms: _287  and  _288
REMARK  128  A    between atoms: _291  and  _293
REMARK  129  A    between atoms: _293  and  _294
REMARK  130  A    between atoms: _293  and  _296
REMARK  131  A    between atoms: _296  and  _297
REMARK  132  A    between atoms: _300  and  _302
REMARK  133  A    between atoms: _302  and  _303
REMARK  134  A    between atoms: _302  and  _305
REMARK  135  A    between atoms: _308  and  _310
REMARK  136  A    between atoms: _310  and  _311
REMARK  137  A    between atoms: _310  and  _313
REMARK  138  A    between atoms: _313  and  _314
REMARK  139  A    between atoms: _314  and  _315
REMARK  140  A    between atoms: _315  and  _316
REMARK  141  A    between atoms: _316  and  _317
REMARK  142  A    between atoms: _321  and  _323
REMARK  143  A    between atoms: _323  and  _324
REMARK  144  A    between atoms: _323  and  _326
REMARK  145  A    between atoms: _326  and  _327
REMARK  146  A    between atoms: _333  and  _335
REMARK  147  A    between atoms: _335  and  _336
REMARK  148  A    between atoms: _335  and  _338
REMARK  149  A    between atoms: _340  and  _342
REMARK  150  A    between atoms: _342  and  _343
REMARK  151  A    between atoms: _342  and  _345
REMARK  152  A    between atoms: _345  and  _346
REMARK  153  A    between atoms: _352  and  _354
REMARK  154  A    between atoms: _354  and  _355
REMARK  155  A    between atoms: _354  and  _357
REMARK  156  A    between atoms: _357  and  _358
REMARK  157  A    between atoms: _358  and  _359
REMARK  158  A    between atoms: _359  and  _360
REMARK  159  A    between atoms: _360  and  _361
REMARK  160  A    between atoms: _365  and  _367
REMARK  161  A    between atoms: _367  and  _368
REMARK  162  A    between atoms: _367  and  _370
REMARK  163  A    between atoms: _370  and  _371
REMARK  164  A    between atoms: _374  and  _376
REMARK  165  A    between atoms: _376  and  _377
REMARK  166  A    between atoms: _376  and  _379
REMARK  167  A    between atoms: _379  and  _380
REMARK  168  A    between atoms: _383  and  _385
REMARK  169  A    between atoms: _385  and  _386
REMARK  170  A    between atoms: _385  and  _388
REMARK  171  A    between atoms: _388  and  _389
REMARK  172  A    between atoms: _399  and  _401
REMARK  173  A    between atoms: _401  and  _402
REMARK  174  A    between atoms: _401  and  _404
REMARK  175  A    between atoms: _404  and  _405
REMARK  176  A    between atoms: _410  and  _412
REMARK  177  A    between atoms: _412  and  _413
REMARK  178  A    between atoms: _412  and  _415
REMARK  179  A    between atoms: _415  and  _416
REMARK  180  A    between atoms: _422  and  _424
REMARK  181  A    between atoms: _424  and  _425
REMARK  182  A    between atoms: _424  and  _427
REMARK  183  A    between atoms: _427  and  _428
REMARK  184  A    between atoms: _432  and  _433
REMARK  185  A    between atoms: _438  and  _440
REMARK  186  A    between atoms: _440  and  _441
REMARK  187  A    between atoms: _440  and  _443
REMARK  188  A    between atoms: _443  and  _444
REMARK  189  A    between atoms: _447  and  _449
REMARK  190  A    between atoms: _449  and  _450
REMARK  191  A    between atoms: _449  and  _452
REMARK  192  A    between atoms: _452  and  _453
REMARK  193  A    between atoms: _458  and  _460
REMARK  194  A    between atoms: _460  and  _461
REMARK  195  A    between atoms: _460  and  _463
REMARK  196  A    between atoms: _463  and  _464
REMARK  197  A    between atoms: _470  and  _472
REMARK  198  A    between atoms: _472  and  _473
REMARK  199  A    between atoms: _472  and  _475
REMARK  200  A    between atoms: _478  and  _480
REMARK  201  A    between atoms: _480  and  _481
REMARK  202  A    between atoms: _480  and  _483
REMARK  203  A    between atoms: _486  and  _488
REMARK  204  A    between atoms: _488  and  _489
REMARK  205  A    between atoms: _491  and  _493
REMARK  206  A    between atoms: _493  and  _494
REMARK  207  A    between atoms: _493  and  _496
REMARK  208  A    between atoms: _496  and  _497
REMARK  209  A    between atoms: _499  and  _501
REMARK  210  A    between atoms: _501  and  _502
REMARK  211  A    between atoms: _501  and  _504
REMARK  212  A    between atoms: _504  and  _505
REMARK  213  A    between atoms: _508  and  _510
REMARK  214  A    between atoms: _510  and  _511
REMARK  215  A    between atoms: _510  and  _513
REMARK  216  A    between atoms: _513  and  _514
REMARK  217  A    between atoms: _514  and  _515
REMARK  218  A    between atoms: _515  and  MG_622
REMARK  219  A    between atoms: _517  and  _519
REMARK  220  A    between atoms: _519  and  _520
REMARK  221  A    between atoms: _519  and  _522
REMARK  222  A    between atoms: _522  and  _523
REMARK  223  A    between atoms: _528  and  _529
REMARK  224  A    between atoms: _531  and  _533
REMARK  225  A    between atoms: _533  and  _534
REMARK  226  A    between atoms: _533  and  _536
REMARK  227  A    between atoms: _536  and  _537
REMARK  228  A    between atoms: _542  and  _544
REMARK  229  A    between atoms: _544  and  _545
REMARK  230  A    between atoms: _544  and  _547
REMARK  231  A    between atoms: _547  and  _548
REMARK  232  A    between atoms: _548  and  _549
REMARK  233  A    between atoms: _552  and  _554
REMARK  234  A    between atoms: _554  and  _555
REMARK  235  A    between atoms: _554  and  _557
REMARK  236  A    between atoms: _557  and  _558
REMARK  237  A    between atoms: _561  and  _563
REMARK  238  A    between atoms: _563  and  _564
REMARK  239  A    between atoms: _563  and  _566
REMARK  240  A    between atoms: _566  and  _567
REMARK  241  A    between atoms: _567  and  _568
REMARK  242  A    between atoms: _568  and  _569
REMARK  243  A    between atoms: _578  and  _580
REMARK  244  A    between atoms: _580  and  _581
REMARK  245  A    between atoms: _580  and  _583
REMARK  246  A    between atoms: _585  and  _587
REMARK  247  A    between atoms: _587  and  _588
REMARK  248  A    between atoms: _587  and  _590
REMARK  249  A    between atoms: _592  and  _594
REMARK  250  A    between atoms: _594  and  _595
REMARK  251  A    between atoms: _594  and  _597
REMARK  252  A    between atoms: _597  and  _598
REMARK  253  A    between atoms: _601  and  _603
REMARK  254  A    between atoms: _603  and  _604
REMARK  255  A    between atoms: _603  and  _606
REMARK  256  A    between atoms: _609  and  _611
REMARK  257  A    between atoms: _611  and  _612
REMARK  258  A    between atoms: _611  and  _614
REMARK  259  A    between atoms: _614  and  _615
REMARK  260  A    between atoms: _615  and  _616
REMARK  261  A    between atoms: _616  and  _617
REMARK  262  A    between atoms: _617  and  _618
REMARK                            x       y       z     vdW  Elec       q    Type
REMARK                         _______ _______ _______ _____ _____    ______ ____
ROOT
ATOM      1  O   HOH     1      60.454  35.784  78.767  0.00  0.00    +0.000 OA
ENDROOT
TORSDOF 0
REMARK  Name = ../refined-set-2016/3ozg/3ozg_pocket.pdb
REMARK  262 active torsions:
REMARK  status: ('A' for Active; 'I' for Inactive)
REMARK    1  A    between atoms: _1  and  _3
REMARK    2  A    between atoms: _3  and  _4
REMARK    3  A    between atoms: _3  and  _6
REMARK    4  A    between atoms: _6  and  _7
REMARK    5  A    between atoms: _10  and  _12
REMARK    6  A    between atoms: _12  and  _13
REMARK    7  A    between atoms: _12  and  _15
REMARK    8  A    between atoms: _15  and  _16
REMARK    9  A    between atoms: _19  and  _21
REMARK   10  A    between atoms: _21  and  _22
REMARK   11  A    between atoms: _21  and  _24
REMARK   12  A    between atoms: _24  and  _25
REMARK   13  A    between atoms: _25  and  _26
REMARK   14  A    between atoms: _26  and  _27
REMARK   15  A    between atoms: _27  and  _28
REMARK   16  A    between atoms: _32  and  _34
REMARK   17  A    between atoms: _34  and  _35
REMARK   18  A    between atoms: _37  and  _39
REMARK   19  A    between atoms: _39  and  _40
REMARK   20  A    between atoms: _39  and  _42
REMARK   21  A    between atoms: _42  and  _43
REMARK   22  A    between atoms: _45  and  _47
REMARK   23  A    between atoms: _47  and  _48
REMARK   24  A    between atoms: _47  and  _50
REMARK   25  A    between atoms: _50  and  _51
REMARK   26  A    between atoms: _51  and  _52
REMARK   27  A    between atoms: _52  and  _53
REMARK   28  A    between atoms: _62  and  _64
REMARK   29  A    between atoms: _64  and  _65
REMARK   30  A    between atoms: _64  and  _67
REMARK   31  A    between atoms: _67  and  _68
REMARK   32  A    between atoms: _68  and  _69
REMARK   33  A    between atoms: _69  and  _70
REMARK   34  A    between atoms: _79  and  _81
REMARK   35  A    between atoms: _81  and  _82
REMARK   36  A    between atoms: _81  and  _84
REMARK   37  A    between atoms: _87  and  _89
REMARK   38  A    between atoms: _89  and  _90
REMARK   39  A    between atoms: _89  and  _92
REMARK   40  A    between atoms: _92  and  _93
REMARK   41  A    between atoms: _93  and  _94
REMARK   42  A    between atoms: _94  and  _95
REMARK   43  A    between atoms: _95  and  _96
REMARK   44  A    between atoms: _100  and  _102
REMARK   45  A    between atoms: _102  and  _103
REMARK   46  A    between atoms: _102  and  _105
REMARK   47  A    between atoms: _105  and  _106
REMARK   48  A    between atoms: _108  and  _110
REMARK   49  A    between atoms: _110  and  _111
REMARK   50  A    between atoms: _110  and  _113
REMARK   51  A    between atoms: _113  and  _114
REMARK   52  A    between atoms: _119  and  _120
REMARK   53  A    between atoms: _122  and  _124
REMARK   54  A    between atoms: _124  and  _125
REMARK   55  A    between atoms: _124  and  _127
REMARK   56  A    between atoms: _129  and  _131
REMARK   57  A    between atoms: _131  and  _132
REMARK   58  A    between atoms: _131  and  _134
REMARK   59  A    between atoms: _134  and  _135
REMARK   60  A    between atoms: _140  and  _142
REMARK   61  A    between atoms: _142  and  _143
REMARK   62  A    between atoms: _142  and  _145
REMARK   63  A    between atoms: _145  and  _146
REMARK   64  A    between atoms: _149  and  _151
REMARK   65  A    between atoms: _151  and  _152
REMARK   66  A    between atoms: _151  and  _154
REMARK   67  A    between atoms: _154  and  _155
REMARK   68  A    between atoms: _155  and  _156
REMARK   69  A    between atoms: _161  and  _163
REMARK   70  A    between atoms: _163  and  _164
REMARK   71  A    between atoms: _163  and  _166
REMARK   72  A    between atoms: _166  and  _167
REMARK   73  A    between atoms: _169  and  _171
REMARK   74  A    between atoms: _171  and  _172
REMARK   75  A    between atoms: _171  and  _174
REMARK   76  A    between atoms: _174  and  _175
REMARK   77  A    between atoms: _178  and  _180
REMARK   78  A    between atoms: _180  and  _181
REMARK   79  A    between atoms: _183  and  _185
REMARK   80  A    between atoms: _185  and  _186
REMARK   81  A    between atoms: _185  and  _188
REMARK   82  A    between atoms: _188  and  _189
REMARK   83  A    between atoms: _192  and  _194
REMARK   84  A    between atoms: _194  and  _195
REMARK   85  A    between atoms: _194  and  _197
REMARK   86  A    between atoms: _197  and  _198
REMARK   87  A    between atoms: _201  and  _203
REMARK   88  A    between atoms: _203  and  _204
REMARK   89  A    between atoms: _203  and  _206
REMARK   90  A    between atoms: _209  and  _211
REMARK   91  A    between atoms: _211  and  _212
REMARK   92  A    between atoms: _211  and  _214
REMARK   93  A    between atoms: _214  and  _215
REMARK   94  A    between atoms: _215  and  _216
REMARK   95  A    between atoms: _219  and  _221
REMARK   96  A    between atoms: _221  and  _222
REMARK   97  A    between atoms: _221  and  _224
REMARK   98  A    between atoms: _224  and  _225
REMARK   99  A    between atoms: _228  and  _230
REMARK  100  A    between atoms: _230  and  _231
REMARK  101  A    between atoms: _230  and  _233
REMARK  102  A    between atoms: _233  and  _234
REMARK  103  A    between atoms: _237  and  _239
REMARK  104  A    between atoms: _239  and  _240
REMARK  105  A    between atoms: _239  and  _242
REMARK  106  A    between atoms: _242  and  _243
REMARK  107  A    between atoms: _246  and  _248
REMARK  108  A    between atoms: _248  and  _249
REMARK  109  A    between atoms: _248  and  _251
REMARK  110  A    between atoms: _251  and  _252
REMARK  111  A    between atoms: _255  and  _257
REMARK  112  A    between atoms: _257  and  _258
REMARK  113  A    between atoms: _257  and  _260
REMARK  114  A    between atoms: _260  and  _261
REMARK  115  A    between atoms: _264  and  _266
REMARK  116  A    between atoms: _266  and  _267
REMARK  117  A    between atoms: _269  and  _271
REMARK  118  A    between atoms: _271  and  _272
REMARK  119  A    between atoms: _271  and  _274
REMARK  120  A    between atoms: _274  and  _275
REMARK  121  A    between atoms: _275  and  _276
REMARK  122  A    between atoms: _276  and  _277
REMARK  123  A    between atoms: _277  and  _278
REMARK  124  A    between atoms: _282  and  _284
REMARK  125  A    between atoms: _284  and  _285
REMARK  126  A    between atoms: _284  and  _287
REMARK  127  A    between atoms: _287  and  _288
REMARK  128  A    between atoms: _291  and  _293
REMARK  129  A    between atoms: _293  and  _294
REMARK  130  A    between atoms: _293  and  _296
REMARK  131  A    between atoms: _296  and  _297
REMARK  132  A    between atoms: _300  and  _302
REMARK  133  A    between atoms: _302  and  _303
REMARK  134  A    between atoms: _302  and  _305
REMARK  135  A    between atoms: _308  and  _310
REMARK  136  A    between atoms: _310  and  _311
REMARK  137  A    between atoms: _310  and  _313
REMARK  138  A    between atoms: _313  and  _314
REMARK  139  A    between atoms: _314  and  _315
REMARK  140  A    between atoms: _315  and  _316
REMARK  141  A    between atoms: _316  and  _317
REMARK  142  A    between atoms: _321  and  _323
REMARK  143  A    between atoms: _323  and  _324
REMARK  144  A    between atoms: _323  and  _326
REMARK  145  A    between atoms: _326  and  _327
REMARK  146  A    between atoms: _333  and  _335
REMARK  147  A    between atoms: _335  and  _336
REMARK  148  A    between atoms: _335  and  _338
REMARK  149  A    between atoms: _340  and  _342
REMARK  150  A    between atoms: _342  and  _343
REMARK  151  A    between atoms: _342  and  _345
REMARK  152  A    between atoms: _345  and  _346
REMARK  153  A    between atoms: _352  and  _354
REMARK  154  A    between atoms: _354  and  _355
REMARK  155  A    between atoms: _354  and  _357
REMARK  156  A    between atoms: _357  and  _358
REMARK  157  A    between atoms: _358  and  _359
REMARK  158  A    between atoms: _359  and  _360
REMARK  159  A    between atoms: _360  and  _361
REMARK  160  A    between atoms: _365  and  _367
REMARK  161  A    between atoms: _367  and  _368
REMARK  162  A    between atoms: _367  and  _370
REMARK  163  A    between atoms: _370  and  _371
REMARK  164  A    between atoms: _374  and  _376
REMARK  165  A    between atoms: _376  and  _377
REMARK  166  A    between atoms: _376  and  _379
REMARK  167  A    between atoms: _379  and  _380
REMARK  168  A    between atoms: _383  and  _385
REMARK  169  A    between atoms: _385  and  _386
REMARK  170  A    between atoms: _385  and  _388
REMARK  171  A    between atoms: _388  and  _389
REMARK  172  A    between atoms: _399  and  _401
REMARK  173  A    between atoms: _401  and  _402
REMARK  174  A    between atoms: _401  and  _404
REMARK  175  A    between atoms: _404  and  _405
REMARK  176  A    between atoms: _410  and  _412
REMARK  177  A    between atoms: _412  and  _413
REMARK  178  A    between atoms: _412  and  _415
REMARK  179  A    between atoms: _415  and  _416
REMARK  180  A    between atoms: _422  and  _424
REMARK  181  A    between atoms: _424  and  _425
REMARK  182  A    between atoms: _424  and  _427
REMARK  183  A    between atoms: _427  and  _428
REMARK  184  A    between atoms: _432  and  _433
REMARK  185  A    between atoms: _438  and  _440
REMARK  186  A    between atoms: _440  and  _441
REMARK  187  A    between atoms: _440  and  _443
REMARK  188  A    between atoms: _443  and  _444
REMARK  189  A    between atoms: _447  and  _449
REMARK  190  A    between atoms: _449  and  _450
REMARK  191  A    between atoms: _449  and  _452
REMARK  192  A    between atoms: _452  and  _453
REMARK  193  A    between atoms: _458  and  _460
REMARK  194  A    between atoms: _460  and  _461
REMARK  195  A    between atoms: _460  and  _463
REMARK  196  A    between atoms: _463  and  _464
REMARK  197  A    between atoms: _470  and  _472
REMARK  198  A    between atoms: _472  and  _473
REMARK  199  A    between atoms: _472  and  _475
REMARK  200  A    between atoms: _478  and  _480
REMARK  201  A    between atoms: _480  and  _481
REMARK  202  A    between atoms: _480  and  _483
REMARK  203  A    between atoms: _486  and  _488
REMARK  204  A    between atoms: _488  and  _489
REMARK  205  A    between atoms: _491  and  _493
REMARK  206  A    between atoms: _493  and  _494
REMARK  207  A    between atoms: _493  and  _496
REMARK  208  A    between atoms: _496  and  _497
REMARK  209  A    between atoms: _499  and  _501
REMARK  210  A    between atoms: _501  and  _502
REMARK  211  A    between atoms: _501  and  _504
REMARK  212  A    between atoms: _504  and  _505
REMARK  213  A    between atoms: _508  and  _510
REMARK  214  A    between atoms: _510  and  _511
REMARK  215  A    between atoms: _510  and  _513
REMARK  216  A    between atoms: _513  and  _514
REMARK  217  A    between atoms: _514  and  _515
REMARK  218  A    between atoms: _515  and  MG_622
REMARK  219  A    between atoms: _517  and  _519
REMARK  220  A    between atoms: _519  and  _520
REMARK  221  A    between atoms: _519  and  _522
REMARK  222  A    between atoms: _522  and  _523
REMARK  223  A    between atoms: _528  and  _529
REMARK  224  A    between atoms: _531  and  _533
REMARK  225  A    between atoms: _533  and  _534
REMARK  226  A    between atoms: _533  and  _536
REMARK  227  A    between atoms: _536  and  _537
REMARK  228  A    between atoms: _542  and  _544
REMARK  229  A    between atoms: _544  and  _545
REMARK  230  A    between atoms: _544  and  _547
REMARK  231  A    between atoms: _547  and  _548
REMARK  232  A    between atoms: _548  and  _549
REMARK  233  A    between atoms: _552  and  _554
REMARK  234  A    between atoms: _554  and  _555
REMARK  235  A    between atoms: _554  and  _557
REMARK  236  A    between atoms: _557  and  _558
REMARK  237  A    between atoms: _561  and  _563
REMARK  238  A    between atoms: _563  and  _564
REMARK  239  A    between atoms: _563  and  _566
REMARK  240  A    between atoms: _566  and  _567
REMARK  241  A    between atoms: _567  and  _568
REMARK  242  A    between atoms: _568  and  _569
REMARK  243  A    between atoms: _578  and  _580
REMARK  244  A    between atoms: _580  and  _581
REMARK  245  A    between atoms: _580  and  _583
REMARK  246  A    between atoms: _585  and  _587
REMARK  247  A    between atoms: _587  and  _588
REMARK  248  A    between atoms: _587  and  _590
REMARK  249  A    between atoms: _592  and  _594
REMARK  250  A    between atoms: _594  and  _595
REMARK  251  A    between atoms: _594  and  _597
REMARK  252  A    between atoms: _597  and  _598
REMARK  253  A    between atoms: _601  and  _603
REMARK  254  A    between atoms: _603  and  _604
REMARK  255  A    between atoms: _603  and  _606
REMARK  256  A    between atoms: _609  and  _611
REMARK  257  A    between atoms: _611  and  _612
REMARK  258  A    between atoms: _611  and  _614
REMARK  259  A    between atoms: _614  and  _615
REMARK  260  A    between atoms: _615  and  _616
REMARK  261  A    between atoms: _616  and  _617
REMARK  262  A    between atoms: _617  and  _618
REMARK                            x       y       z     vdW  Elec       q    Type
REMARK                         _______ _______ _______ _____ _____    ______ ____
ROOT
ATOM      1  O   HOH     1      70.025  37.584  86.390  0.00  0.00    +0.000 OA
ENDROOT
TORSDOF 0
REMARK  Name = ../refined-set-2016/3ozg/3ozg_pocket.pdb
REMARK  262 active torsions:
REMARK  status: ('A' for Active; 'I' for Inactive)
REMARK    1  A    between atoms: _1  and  _3
REMARK    2  A    between atoms: _3  and  _4
REMARK    3  A    between atoms: _3  and  _6
REMARK    4  A    between atoms: _6  and  _7
REMARK    5  A    between atoms: _10  and  _12
REMARK    6  A    between atoms: _12  and  _13
REMARK    7  A    between atoms: _12  and  _15
REMARK    8  A    between atoms: _15  and  _16
REMARK    9  A    between atoms: _19  and  _21
REMARK   10  A    between atoms: _21  and  _22
REMARK   11  A    between atoms: _21  and  _24
REMARK   12  A    between atoms: _24  and  _25
REMARK   13  A    between atoms: _25  and  _26
REMARK   14  A    between atoms: _26  and  _27
REMARK   15  A    between atoms: _27  and  _28
REMARK   16  A    between atoms: _32  and  _34
REMARK   17  A    between atoms: _34  and  _35
REMARK   18  A    between atoms: _37  and  _39
REMARK   19  A    between atoms: _39  and  _40
REMARK   20  A    between atoms: _39  and  _42
REMARK   21  A    between atoms: _42  and  _43
REMARK   22  A    between atoms: _45  and  _47
REMARK   23  A    between atoms: _47  and  _48
REMARK   24  A    between atoms: _47  and  _50
REMARK   25  A    between atoms: _50  and  _51
REMARK   26  A    between atoms: _51  and  _52
REMARK   27  A    between atoms: _52  and  _53
REMARK   28  A    between atoms: _62  and  _64
REMARK   29  A    between atoms: _64  and  _65
REMARK   30  A    between atoms: _64  and  _67
REMARK   31  A    between atoms: _67  and  _68
REMARK   32  A    between atoms: _68  and  _69
REMARK   33  A    between atoms: _69  and  _70
REMARK   34  A    between atoms: _79  and  _81
REMARK   35  A    between atoms: _81  and  _82
REMARK   36  A    between atoms: _81  and  _84
REMARK   37  A    between atoms: _87  and  _89
REMARK   38  A    between atoms: _89  and  _90
REMARK   39  A    between atoms: _89  and  _92
REMARK   40  A    between atoms: _92  and  _93
REMARK   41  A    between atoms: _93  and  _94
REMARK   42  A    between atoms: _94  and  _95
REMARK   43  A    between atoms: _95  and  _96
REMARK   44  A    between atoms: _100  and  _102
REMARK   45  A    between atoms: _102  and  _103
REMARK   46  A    between atoms: _102  and  _105
REMARK   47  A    between atoms: _105  and  _106
REMARK   48  A    between atoms: _108  and  _110
REMARK   49  A    between atoms: _110  and  _111
REMARK   50  A    between atoms: _110  and  _113
REMARK   51  A    between atoms: _113  and  _114
REMARK   52  A    between atoms: _119  and  _120
REMARK   53  A    between atoms: _122  and  _124
REMARK   54  A    between atoms: _124  and  _125
REMARK   55  A    between atoms: _124  and  _127
REMARK   56  A    between atoms: _129  and  _131
REMARK   57  A    between atoms: _131  and  _132
REMARK   58  A    between atoms: _131  and  _134
REMARK   59  A    between atoms: _134  and  _135
REMARK   60  A    between atoms: _140  and  _142
REMARK   61  A    between atoms: _142  and  _143
REMARK   62  A    between atoms: _142  and  _145
REMARK   63  A    between atoms: _145  and  _146
REMARK   64  A    between atoms: _149  and  _151
REMARK   65  A    between atoms: _151  and  _152
REMARK   66  A    between atoms: _151  and  _154
REMARK   67  A    between atoms: _154  and  _155
REMARK   68  A    between atoms: _155  and  _156
REMARK   69  A    between atoms: _161  and  _163
REMARK   70  A    between atoms: _163  and  _164
REMARK   71  A    between atoms: _163  and  _166
REMARK   72  A    between atoms: _166  and  _167
REMARK   73  A    between atoms: _169  and  _171
REMARK   74  A    between atoms: _171  and  _172
REMARK   75  A    between atoms: _171  and  _174
REMARK   76  A    between atoms: _174  and  _175
REMARK   77  A    between atoms: _178  and  _180
REMARK   78  A    between atoms: _180  and  _181
REMARK   79  A    between atoms: _183  and  _185
REMARK   80  A    between atoms: _185  and  _186
REMARK   81  A    between atoms: _185  and  _188
REMARK   82  A    between atoms: _188  and  _189
REMARK   83  A    between atoms: _192  and  _194
REMARK   84  A    between atoms: _194  and  _195
REMARK   85  A    between atoms: _194  and  _197
REMARK   86  A    between atoms: _197  and  _198
REMARK   87  A    between atoms: _201  and  _203
REMARK   88  A    between atoms: _203  and  _204
REMARK   89  A    between atoms: _203  and  _206
REMARK   90  A    between atoms: _209  and  _211
REMARK   91  A    between atoms: _211  and  _212
REMARK   92  A    between atoms: _211  and  _214
REMARK   93  A    between atoms: _214  and  _215
REMARK   94  A    between atoms: _215  and  _216
REMARK   95  A    between atoms: _219  and  _221
REMARK   96  A    between atoms: _221  and  _222
REMARK   97  A    between atoms: _221  and  _224
REMARK   98  A    between atoms: _224  and  _225
REMARK   99  A    between atoms: _228  and  _230
REMARK  100  A    between atoms: _230  and  _231
REMARK  101  A    between atoms: _230  and  _233
REMARK  102  A    between atoms: _233  and  _234
REMARK  103  A    between atoms: _237  and  _239
REMARK  104  A    between atoms: _239  and  _240
REMARK  105  A    between atoms: _239  and  _242
REMARK  106  A    between atoms: _242  and  _243
REMARK  107  A    between atoms: _246  and  _248
REMARK  108  A    between atoms: _248  and  _249
REMARK  109  A    between atoms: _248  and  _251
REMARK  110  A    between atoms: _251  and  _252
REMARK  111  A    between atoms: _255  and  _257
REMARK  112  A    between atoms: _257  and  _258
REMARK  113  A    between atoms: _257  and  _260
REMARK  114  A    between atoms: _260  and  _261
REMARK  115  A    between atoms: _264  and  _266
REMARK  116  A    between atoms: _266  and  _267
REMARK  117  A    between atoms: _269  and  _271
REMARK  118  A    between atoms: _271  and  _272
REMARK  119  A    between atoms: _271  and  _274
REMARK  120  A    between atoms: _274  and  _275
REMARK  121  A    between atoms: _275  and  _276
REMARK  122  A    between atoms: _276  and  _277
REMARK  123  A    between atoms: _277  and  _278
REMARK  124  A    between atoms: _282  and  _284
REMARK  125  A    between atoms: _284  and  _285
REMARK  126  A    between atoms: _284  and  _287
REMARK  127  A    between atoms: _287  and  _288
REMARK  128  A    between atoms: _291  and  _293
REMARK  129  A    between atoms: _293  and  _294
REMARK  130  A    between atoms: _293  and  _296
REMARK  131  A    between atoms: _296  and  _297
REMARK  132  A    between atoms: _300  and  _302
REMARK  133  A    between atoms: _302  and  _303
REMARK  134  A    between atoms: _302  and  _305
REMARK  135  A    between atoms: _308  and  _310
REMARK  136  A    between atoms: _310  and  _311
REMARK  137  A    between atoms: _310  and  _313
REMARK  138  A    between atoms: _313  and  _314
REMARK  139  A    between atoms: _314  and  _315
REMARK  140  A    between atoms: _315  and  _316
REMARK  141  A    between atoms: _316  and  _317
REMARK  142  A    between atoms: _321  and  _323
REMARK  143  A    between atoms: _323  and  _324
REMARK  144  A    between atoms: _323  and  _326
REMARK  145  A    between atoms: _326  and  _327
REMARK  146  A    between atoms: _333  and  _335
REMARK  147  A    between atoms: _335  and  _336
REMARK  148  A    between atoms: _335  and  _338
REMARK  149  A    between atoms: _340  and  _342
REMARK  150  A    between atoms: _342  and  _343
REMARK  151  A    between atoms: _342  and  _345
REMARK  152  A    between atoms: _345  and  _346
REMARK  153  A    between atoms: _352  and  _354
REMARK  154  A    between atoms: _354  and  _355
REMARK  155  A    between atoms: _354  and  _357
REMARK  156  A    between atoms: _357  and  _358
REMARK  157  A    between atoms: _358  and  _359
REMARK  158  A    between atoms: _359  and  _360
REMARK  159  A    between atoms: _360  and  _361
REMARK  160  A    between atoms: _365  and  _367
REMARK  161  A    between atoms: _367  and  _368
REMARK  162  A    between atoms: _367  and  _370
REMARK  163  A    between atoms: _370  and  _371
REMARK  164  A    between atoms: _374  and  _376
REMARK  165  A    between atoms: _376  and  _377
REMARK  166  A    between atoms: _376  and  _379
REMARK  167  A    between atoms: _379  and  _380
REMARK  168  A    between atoms: _383  and  _385
REMARK  169  A    between atoms: _385  and  _386
REMARK  170  A    between atoms: _385  and  _388
REMARK  171  A    between atoms: _388  and  _389
REMARK  172  A    between atoms: _399  and  _401
REMARK  173  A    between atoms: _401  and  _402
REMARK  174  A    between atoms: _401  and  _404
REMARK  175  A    between atoms: _404  and  _405
REMARK  176  A    between atoms: _410  and  _412
REMARK  177  A    between atoms: _412  and  _413
REMARK  178  A    between atoms: _412  and  _415
REMARK  179  A    between atoms: _415  and  _416
REMARK  180  A    between atoms: _422  and  _424
REMARK  181  A    between atoms: _424  and  _425
REMARK  182  A    between atoms: _424  and  _427
REMARK  183  A    between atoms: _427  and  _428
REMARK  184  A    between atoms: _432  and  _433
REMARK  185  A    between atoms: _438  and  _440
REMARK  186  A    between atoms: _440  and  _441
REMARK  187  A    between atoms: _440  and  _443
REMARK  188  A    between atoms: _443  and  _444
REMARK  189  A    between atoms: _447  and  _449
REMARK  190  A    between atoms: _449  and  _450
REMARK  191  A    between atoms: _449  and  _452
REMARK  192  A    between atoms: _452  and  _453
REMARK  193  A    between atoms: _458  and  _460
REMARK  194  A    between atoms: _460  and  _461
REMARK  195  A    between atoms: _460  and  _463
REMARK  196  A    between atoms: _463  and  _464
REMARK  197  A    between atoms: _470  and  _472
REMARK  198  A    between atoms: _472  and  _473
REMARK  199  A    between atoms: _472  and  _475
REMARK  200  A    between atoms: _478  and  _480
REMARK  201  A    between atoms: _480  and  _481
REMARK  202  A    between atoms: _480  and  _483
REMARK  203  A    between atoms: _486  and  _488
REMARK  204  A    between atoms: _488  and  _489
REMARK  205  A    between atoms: _491  and  _493
REMARK  206  A    between atoms: _493  and  _494
REMARK  207  A    between atoms: _493  and  _496
REMARK  208  A    between atoms: _496  and  _497
REMARK  209  A    between atoms: _499  and  _501
REMARK  210  A    between atoms: _501  and  _502
REMARK  211  A    between atoms: _501  and  _504
REMARK  212  A    between atoms: _504  and  _505
REMARK  213  A    between atoms: _508  and  _510
REMARK  214  A    between atoms: _510  and  _511
REMARK  215  A    between atoms: _510  and  _513
REMARK  216  A    between atoms: _513  and  _514
REMARK  217  A    between atoms: _514  and  _515
REMARK  218  A    between atoms: _515  and  MG_622
REMARK  219  A    between atoms: _517  and  _519
REMARK  220  A    between atoms: _519  and  _520
REMARK  221  A    between atoms: _519  and  _522
REMARK  222  A    between atoms: _522  and  _523
REMARK  223  A    between atoms: _528  and  _529
REMARK  224  A    between atoms: _531  and  _533
REMARK  225  A    between atoms: _533  and  _534
REMARK  226  A    between atoms: _533  and  _536
REMARK  227  A    between atoms: _536  and  _537
REMARK  228  A    between atoms: _542  and  _544
REMARK  229  A    between atoms: _544  and  _545
REMARK  230  A    between atoms: _544  and  _547
REMARK  231  A    between atoms: _547  and  _548
REMARK  232  A    between atoms: _548  and  _549
REMARK  233  A    between atoms: _552  and  _554
REMARK  234  A    between atoms: _554  and  _555
REMARK  235  A    between atoms: _554  and  _557
REMARK  236  A    between atoms: _557  and  _558
REMARK  237  A    between atoms: _561  and  _563
REMARK  238  A    between atoms: _563  and  _564
REMARK  239  A    between atoms: _563  and  _566
REMARK  240  A    between atoms: _566  and  _567
REMARK  241  A    between atoms: _567  and  _568
REMARK  242  A    between atoms: _568  and  _569
REMARK  243  A    between atoms: _578  and  _580
REMARK  244  A    between atoms: _580  and  _581
REMARK  245  A    between atoms: _580  and  _583
REMARK  246  A    between atoms: _585  and  _587
REMARK  247  A    between atoms: _587  and  _588
REMARK  248  A    between atoms: _587  and  _590
REMARK  249  A    between atoms: _592  and  _594
REMARK  250  A    between atoms: _594  and  _595
REMARK  251  A    between atoms: _594  and  _597
REMARK  252  A    between atoms: _597  and  _598
REMARK  253  A    between atoms: _601  and  _603
REMARK  254  A    between atoms: _603  and  _604
REMARK  255  A    between atoms: _603  and  _606
REMARK  256  A    between atoms: _609  and  _611
REMARK  257  A    between atoms: _611  and  _612
REMARK  258  A    between atoms: _611  and  _614
REMARK  259  A    between atoms: _614  and  _615
REMARK  260  A    between atoms: _615  and  _616
REMARK  261  A    between atoms: _616  and  _617
REMARK  262  A    between atoms: _617  and  _618
REMARK                            x       y       z     vdW  Elec       q    Type
REMARK                         _______ _______ _______ _____ _____    ______ ____
ROOT
ATOM      1  O   HOH     1      71.967  37.167  80.269  0.00  0.00    +0.000 OA
ENDROOT
TORSDOF 0
REMARK  Name = ../refined-set-2016/3ozg/3ozg_pocket.pdb
REMARK  262 active torsions:
REMARK  status: ('A' for Active; 'I' for Inactive)
REMARK    1  A    between atoms: _1  and  _3
REMARK    2  A    between atoms: _3  and  _4
REMARK    3  A    between atoms: _3  and  _6
REMARK    4  A    between atoms: _6  and  _7
REMARK    5  A    between atoms: _10  and  _12
REMARK    6  A    between atoms: _12  and  _13
REMARK    7  A    between atoms: _12  and  _15
REMARK    8  A    between atoms: _15  and  _16
REMARK    9  A    between atoms: _19  and  _21
REMARK   10  A    between atoms: _21  and  _22
REMARK   11  A    between atoms: _21  and  _24
REMARK   12  A    between atoms: _24  and  _25
REMARK   13  A    between atoms: _25  and  _26
REMARK   14  A    between atoms: _26  and  _27
REMARK   15  A    between atoms: _27  and  _28
REMARK   16  A    between atoms: _32  and  _34
REMARK   17  A    between atoms: _34  and  _35
REMARK   18  A    between atoms: _37  and  _39
REMARK   19  A    between atoms: _39  and  _40
REMARK   20  A    between atoms: _39  and  _42
REMARK   21  A    between atoms: _42  and  _43
REMARK   22  A    between atoms: _45  and  _47
REMARK   23  A    between atoms: _47  and  _48
REMARK   24  A    between atoms: _47  and  _50
REMARK   25  A    between atoms: _50  and  _51
REMARK   26  A    between atoms: _51  and  _52
REMARK   27  A    between atoms: _52  and  _53
REMARK   28  A    between atoms: _62  and  _64
REMARK   29  A    between atoms: _64  and  _65
REMARK   30  A    between atoms: _64  and  _67
REMARK   31  A    between atoms: _67  and  _68
REMARK   32  A    between atoms: _68  and  _69
REMARK   33  A    between atoms: _69  and  _70
REMARK   34  A    between atoms: _79  and  _81
REMARK   35  A    between atoms: _81  and  _82
REMARK   36  A    between atoms: _81  and  _84
REMARK   37  A    between atoms: _87  and  _89
REMARK   38  A    between atoms: _89  and  _90
REMARK   39  A    between atoms: _89  and  _92
REMARK   40  A    between atoms: _92  and  _93
REMARK   41  A    between atoms: _93  and  _94
REMARK   42  A    between atoms: _94  and  _95
REMARK   43  A    between atoms: _95  and  _96
REMARK   44  A    between atoms: _100  and  _102
REMARK   45  A    between atoms: _102  and  _103
REMARK   46  A    between atoms: _102  and  _105
REMARK   47  A    between atoms: _105  and  _106
REMARK   48  A    between atoms: _108  and  _110
REMARK   49  A    between atoms: _110  and  _111
REMARK   50  A    between atoms: _110  and  _113
REMARK   51  A    between atoms: _113  and  _114
REMARK   52  A    between atoms: _119  and  _120
REMARK   53  A    between atoms: _122  and  _124
REMARK   54  A    between atoms: _124  and  _125
REMARK   55  A    between atoms: _124  and  _127
REMARK   56  A    between atoms: _129  and  _131
REMARK   57  A    between atoms: _131  and  _132
REMARK   58  A    between atoms: _131  and  _134
REMARK   59  A    between atoms: _134  and  _135
REMARK   60  A    between atoms: _140  and  _142
REMARK   61  A    between atoms: _142  and  _143
REMARK   62  A    between atoms: _142  and  _145
REMARK   63  A    between atoms: _145  and  _146
REMARK   64  A    between atoms: _149  and  _151
REMARK   65  A    between atoms: _151  and  _152
REMARK   66  A    between atoms: _151  and  _154
REMARK   67  A    between atoms: _154  and  _155
REMARK   68  A    between atoms: _155  and  _156
REMARK   69  A    between atoms: _161  and  _163
REMARK   70  A    between atoms: _163  and  _164
REMARK   71  A    between atoms: _163  and  _166
REMARK   72  A    between atoms: _166  and  _167
REMARK   73  A    between atoms: _169  and  _171
REMARK   74  A    between atoms: _171  and  _172
REMARK   75  A    between atoms: _171  and  _174
REMARK   76  A    between atoms: _174  and  _175
REMARK   77  A    between atoms: _178  and  _180
REMARK   78  A    between atoms: _180  and  _181
REMARK   79  A    between atoms: _183  and  _185
REMARK   80  A    between atoms: _185  and  _186
REMARK   81  A    between atoms: _185  and  _188
REMARK   82  A    between atoms: _188  and  _189
REMARK   83  A    between atoms: _192  and  _194
REMARK   84  A    between atoms: _194  and  _195
REMARK   85  A    between atoms: _194  and  _197
REMARK   86  A    between atoms: _197  and  _198
REMARK   87  A    between atoms: _201  and  _203
REMARK   88  A    between atoms: _203  and  _204
REMARK   89  A    between atoms: _203  and  _206
REMARK   90  A    between atoms: _209  and  _211
REMARK   91  A    between atoms: _211  and  _212
REMARK   92  A    between atoms: _211  and  _214
REMARK   93  A    between atoms: _214  and  _215
REMARK   94  A    between atoms: _215  and  _216
REMARK   95  A    between atoms: _219  and  _221
REMARK   96  A    between atoms: _221  and  _222
REMARK   97  A    between atoms: _221  and  _224
REMARK   98  A    between atoms: _224  and  _225
REMARK   99  A    between atoms: _228  and  _230
REMARK  100  A    between atoms: _230  and  _231
REMARK  101  A    between atoms: _230  and  _233
REMARK  102  A    between atoms: _233  and  _234
REMARK  103  A    between atoms: _237  and  _239
REMARK  104  A    between atoms: _239  and  _240
REMARK  105  A    between atoms: _239  and  _242
REMARK  106  A    between atoms: _242  and  _243
REMARK  107  A    between atoms: _246  and  _248
REMARK  108  A    between atoms: _248  and  _249
REMARK  109  A    between atoms: _248  and  _251
REMARK  110  A    between atoms: _251  and  _252
REMARK  111  A    between atoms: _255  and  _257
REMARK  112  A    between atoms: _257  and  _258
REMARK  113  A    between atoms: _257  and  _260
REMARK  114  A    between atoms: _260  and  _261
REMARK  115  A    between atoms: _264  and  _266
REMARK  116  A    between atoms: _266  and  _267
REMARK  117  A    between atoms: _269  and  _271
REMARK  118  A    between atoms: _271  and  _272
REMARK  119  A    between atoms: _271  and  _274
REMARK  120  A    between atoms: _274  and  _275
REMARK  121  A    between atoms: _275  and  _276
REMARK  122  A    between atoms: _276  and  _277
REMARK  123  A    between atoms: _277  and  _278
REMARK  124  A    between atoms: _282  and  _284
REMARK  125  A    between atoms: _284  and  _285
REMARK  126  A    between atoms: _284  and  _287
REMARK  127  A    between atoms: _287  and  _288
REMARK  128  A    between atoms: _291  and  _293
REMARK  129  A    between atoms: _293  and  _294
REMARK  130  A    between atoms: _293  and  _296
REMARK  131  A    between atoms: _296  and  _297
REMARK  132  A    between atoms: _300  and  _302
REMARK  133  A    between atoms: _302  and  _303
REMARK  134  A    between atoms: _302  and  _305
REMARK  135  A    between atoms: _308  and  _310
REMARK  136  A    between atoms: _310  and  _311
REMARK  137  A    between atoms: _310  and  _313
REMARK  138  A    between atoms: _313  and  _314
REMARK  139  A    between atoms: _314  and  _315
REMARK  140  A    between atoms: _315  and  _316
REMARK  141  A    between atoms: _316  and  _317
REMARK  142  A    between atoms: _321  and  _323
REMARK  143  A    between atoms: _323  and  _324
REMARK  144  A    between atoms: _323  and  _326
REMARK  145  A    between atoms: _326  and  _327
REMARK  146  A    between atoms: _333  and  _335
REMARK  147  A    between atoms: _335  and  _336
REMARK  148  A    between atoms: _335  and  _338
REMARK  149  A    between atoms: _340  and  _342
REMARK  150  A    between atoms: _342  and  _343
REMARK  151  A    between atoms: _342  and  _345
REMARK  152  A    between atoms: _345  and  _346
REMARK  153  A    between atoms: _352  and  _354
REMARK  154  A    between atoms: _354  and  _355
REMARK  155  A    between atoms: _354  and  _357
REMARK  156  A    between atoms: _357  and  _358
REMARK  157  A    between atoms: _358  and  _359
REMARK  158  A    between atoms: _359  and  _360
REMARK  159  A    between atoms: _360  and  _361
REMARK  160  A    between atoms: _365  and  _367
REMARK  161  A    between atoms: _367  and  _368
REMARK  162  A    between atoms: _367  and  _370
REMARK  163  A    between atoms: _370  and  _371
REMARK  164  A    between atoms: _374  and  _376
REMARK  165  A    between atoms: _376  and  _377
REMARK  166  A    between atoms: _376  and  _379
REMARK  167  A    between atoms: _379  and  _380
REMARK  168  A    between atoms: _383  and  _385
REMARK  169  A    between atoms: _385  and  _386
REMARK  170  A    between atoms: _385  and  _388
REMARK  171  A    between atoms: _388  and  _389
REMARK  172  A    between atoms: _399  and  _401
REMARK  173  A    between atoms: _401  and  _402
REMARK  174  A    between atoms: _401  and  _404
REMARK  175  A    between atoms: _404  and  _405
REMARK  176  A    between atoms: _410  and  _412
REMARK  177  A    between atoms: _412  and  _413
REMARK  178  A    between atoms: _412  and  _415
REMARK  179  A    between atoms: _415  and  _416
REMARK  180  A    between atoms: _422  and  _424
REMARK  181  A    between atoms: _424  and  _425
REMARK  182  A    between atoms: _424  and  _427
REMARK  183  A    between atoms: _427  and  _428
REMARK  184  A    between atoms: _432  and  _433
REMARK  185  A    between atoms: _438  and  _440
REMARK  186  A    between atoms: _440  and  _441
REMARK  187  A    between atoms: _440  and  _443
REMARK  188  A    between atoms: _443  and  _444
REMARK  189  A    between atoms: _447  and  _449
REMARK  190  A    between atoms: _449  and  _450
REMARK  191  A    between atoms: _449  and  _452
REMARK  192  A    between atoms: _452  and  _453
REMARK  193  A    between atoms: _458  and  _460
REMARK  194  A    between atoms: _460  and  _461
REMARK  195  A    between atoms: _460  and  _463
REMARK  196  A    between atoms: _463  and  _464
REMARK  197  A    between atoms: _470  and  _472
REMARK  198  A    between atoms: _472  and  _473
REMARK  199  A    between atoms: _472  and  _475
REMARK  200  A    between atoms: _478  and  _480
REMARK  201  A    between atoms: _480  and  _481
REMARK  202  A    between atoms: _480  and  _483
REMARK  203  A    between atoms: _486  and  _488
REMARK  204  A    between atoms: _488  and  _489
REMARK  205  A    between atoms: _491  and  _493
REMARK  206  A    between atoms: _493  and  _494
REMARK  207  A    between atoms: _493  and  _496
REMARK  208  A    between atoms: _496  and  _497
REMARK  209  A    between atoms: _499  and  _501
REMARK  210  A    between atoms: _501  and  _502
REMARK  211  A    between atoms: _501  and  _504
REMARK  212  A    between atoms: _504  and  _505
REMARK  213  A    between atoms: _508  and  _510
REMARK  214  A    between atoms: _510  and  _511
REMARK  215  A    between atoms: _510  and  _513
REMARK  216  A    between atoms: _513  and  _514
REMARK  217  A    between atoms: _514  and  _515
REMARK  218  A    between atoms: _515  and  MG_622
REMARK  219  A    between atoms: _517  and  _519
REMARK  220  A    between atoms: _519  and  _520
REMARK  221  A    between atoms: _519  and  _522
REMARK  222  A    between atoms: _522  and  _523
REMARK  223  A    between atoms: _528  and  _529
REMARK  224  A    between atoms: _531  and  _533
REMARK  225  A    between atoms: _533  and  _534
REMARK  226  A    between atoms: _533  and  _536
REMARK  227  A    between atoms: _536  and  _537
REMARK  228  A    between atoms: _542  and  _544
REMARK  229  A    between atoms: _544  and  _545
REMARK  230  A    between atoms: _544  and  _547
REMARK  231  A    between atoms: _547  and  _548
REMARK  232  A    between atoms: _548  and  _549
REMARK  233  A    between atoms: _552  and  _554
REMARK  234  A    between atoms: _554  and  _555
REMARK  235  A    between atoms: _554  and  _557
REMARK  236  A    between atoms: _557  and  _558
REMARK  237  A    between atoms: _561  and  _563
REMARK  238  A    between atoms: _563  and  _564
REMARK  239  A    between atoms: _563  and  _566
REMARK  240  A    between atoms: _566  and  _567
REMARK  241  A    between atoms: _567  and  _568
REMARK  242  A    between atoms: _568  and  _569
REMARK  243  A    between atoms: _578  and  _580
REMARK  244  A    between atoms: _580  and  _581
REMARK  245  A    between atoms: _580  and  _583
REMARK  246  A    between atoms: _585  and  _587
REMARK  247  A    between atoms: _587  and  _588
REMARK  248  A    between atoms: _587  and  _590
REMARK  249  A    between atoms: _592  and  _594
REMARK  250  A    between atoms: _594  and  _595
REMARK  251  A    between atoms: _594  and  _597
REMARK  252  A    between atoms: _597  and  _598
REMARK  253  A    between atoms: _601  and  _603
REMARK  254  A    between atoms: _603  and  _604
REMARK  255  A    between atoms: _603  and  _606
REMARK  256  A    between atoms: _609  and  _611
REMARK  257  A    between atoms: _611  and  _612
REMARK  258  A    between atoms: _611  and  _614
REMARK  259  A    between atoms: _614  and  _615
REMARK  260  A    between atoms: _615  and  _616
REMARK  261  A    between atoms: _616  and  _617
REMARK  262  A    between atoms: _617  and  _618
REMARK                            x       y       z     vdW  Elec       q    Type
REMARK                         _______ _______ _______ _____ _____    ______ ____
ROOT
ATOM      1  O   HOH     1      71.604  36.071  76.805  0.00  0.00    +0.000 OA
ENDROOT
TORSDOF 0
REMARK  Name = ../refined-set-2016/3ozg/3ozg_pocket.pdb
REMARK  262 active torsions:
REMARK  status: ('A' for Active; 'I' for Inactive)
REMARK    1  A    between atoms: _1  and  _3
REMARK    2  A    between atoms: _3  and  _4
REMARK    3  A    between atoms: _3  and  _6
REMARK    4  A    between atoms: _6  and  _7
REMARK    5  A    between atoms: _10  and  _12
REMARK    6  A    between atoms: _12  and  _13
REMARK    7  A    between atoms: _12  and  _15
REMARK    8  A    between atoms: _15  and  _16
REMARK    9  A    between atoms: _19  and  _21
REMARK   10  A    between atoms: _21  and  _22
REMARK   11  A    between atoms: _21  and  _24
REMARK   12  A    between atoms: _24  and  _25
REMARK   13  A    between atoms: _25  and  _26
REMARK   14  A    between atoms: _26  and  _27
REMARK   15  A    between atoms: _27  and  _28
REMARK   16  A    between atoms: _32  and  _34
REMARK   17  A    between atoms: _34  and  _35
REMARK   18  A    between atoms: _37  and  _39
REMARK   19  A    between atoms: _39  and  _40
REMARK   20  A    between atoms: _39  and  _42
REMARK   21  A    between atoms: _42  and  _43
REMARK   22  A    between atoms: _45  and  _47
REMARK   23  A    between atoms: _47  and  _48
REMARK   24  A    between atoms: _47  and  _50
REMARK   25  A    between atoms: _50  and  _51
REMARK   26  A    between atoms: _51  and  _52
REMARK   27  A    between atoms: _52  and  _53
REMARK   28  A    between atoms: _62  and  _64
REMARK   29  A    between atoms: _64  and  _65
REMARK   30  A    between atoms: _64  and  _67
REMARK   31  A    between atoms: _67  and  _68
REMARK   32  A    between atoms: _68  and  _69
REMARK   33  A    between atoms: _69  and  _70
REMARK   34  A    between atoms: _79  and  _81
REMARK   35  A    between atoms: _81  and  _82
REMARK   36  A    between atoms: _81  and  _84
REMARK   37  A    between atoms: _87  and  _89
REMARK   38  A    between atoms: _89  and  _90
REMARK   39  A    between atoms: _89  and  _92
REMARK   40  A    between atoms: _92  and  _93
REMARK   41  A    between atoms: _93  and  _94
REMARK   42  A    between atoms: _94  and  _95
REMARK   43  A    between atoms: _95  and  _96
REMARK   44  A    between atoms: _100  and  _102
REMARK   45  A    between atoms: _102  and  _103
REMARK   46  A    between atoms: _102  and  _105
REMARK   47  A    between atoms: _105  and  _106
REMARK   48  A    between atoms: _108  and  _110
REMARK   49  A    between atoms: _110  and  _111
REMARK   50  A    between atoms: _110  and  _113
REMARK   51  A    between atoms: _113  and  _114
REMARK   52  A    between atoms: _119  and  _120
REMARK   53  A    between atoms: _122  and  _124
REMARK   54  A    between atoms: _124  and  _125
REMARK   55  A    between atoms: _124  and  _127
REMARK   56  A    between atoms: _129  and  _131
REMARK   57  A    between atoms: _131  and  _132
REMARK   58  A    between atoms: _131  and  _134
REMARK   59  A    between atoms: _134  and  _135
REMARK   60  A    between atoms: _140  and  _142
REMARK   61  A    between atoms: _142  and  _143
REMARK   62  A    between atoms: _142  and  _145
REMARK   63  A    between atoms: _145  and  _146
REMARK   64  A    between atoms: _149  and  _151
REMARK   65  A    between atoms: _151  and  _152
REMARK   66  A    between atoms: _151  and  _154
REMARK   67  A    between atoms: _154  and  _155
REMARK   68  A    between atoms: _155  and  _156
REMARK   69  A    between atoms: _161  and  _163
REMARK   70  A    between atoms: _163  and  _164
REMARK   71  A    between atoms: _163  and  _166
REMARK   72  A    between atoms: _166  and  _167
REMARK   73  A    between atoms: _169  and  _171
REMARK   74  A    between atoms: _171  and  _172
REMARK   75  A    between atoms: _171  and  _174
REMARK   76  A    between atoms: _174  and  _175
REMARK   77  A    between atoms: _178  and  _180
REMARK   78  A    between atoms: _180  and  _181
REMARK   79  A    between atoms: _183  and  _185
REMARK   80  A    between atoms: _185  and  _186
REMARK   81  A    between atoms: _185  and  _188
REMARK   82  A    between atoms: _188  and  _189
REMARK   83  A    between atoms: _192  and  _194
REMARK   84  A    between atoms: _194  and  _195
REMARK   85  A    between atoms: _194  and  _197
REMARK   86  A    between atoms: _197  and  _198
REMARK   87  A    between atoms: _201  and  _203
REMARK   88  A    between atoms: _203  and  _204
REMARK   89  A    between atoms: _203  and  _206
REMARK   90  A    between atoms: _209  and  _211
REMARK   91  A    between atoms: _211  and  _212
REMARK   92  A    between atoms: _211  and  _214
REMARK   93  A    between atoms: _214  and  _215
REMARK   94  A    between atoms: _215  and  _216
REMARK   95  A    between atoms: _219  and  _221
REMARK   96  A    between atoms: _221  and  _222
REMARK   97  A    between atoms: _221  and  _224
REMARK   98  A    between atoms: _224  and  _225
REMARK   99  A    between atoms: _228  and  _230
REMARK  100  A    between atoms: _230  and  _231
REMARK  101  A    between atoms: _230  and  _233
REMARK  102  A    between atoms: _233  and  _234
REMARK  103  A    between atoms: _237  and  _239
REMARK  104  A    between atoms: _239  and  _240
REMARK  105  A    between atoms: _239  and  _242
REMARK  106  A    between atoms: _242  and  _243
REMARK  107  A    between atoms: _246  and  _248
REMARK  108  A    between atoms: _248  and  _249
REMARK  109  A    between atoms: _248  and  _251
REMARK  110  A    between atoms: _251  and  _252
REMARK  111  A    between atoms: _255  and  _257
REMARK  112  A    between atoms: _257  and  _258
REMARK  113  A    between atoms: _257  and  _260
REMARK  114  A    between atoms: _260  and  _261
REMARK  115  A    between atoms: _264  and  _266
REMARK  116  A    between atoms: _266  and  _267
REMARK  117  A    between atoms: _269  and  _271
REMARK  118  A    between atoms: _271  and  _272
REMARK  119  A    between atoms: _271  and  _274
REMARK  120  A    between atoms: _274  and  _275
REMARK  121  A    between atoms: _275  and  _276
REMARK  122  A    between atoms: _276  and  _277
REMARK  123  A    between atoms: _277  and  _278
REMARK  124  A    between atoms: _282  and  _284
REMARK  125  A    between atoms: _284  and  _285
REMARK  126  A    between atoms: _284  and  _287
REMARK  127  A    between atoms: _287  and  _288
REMARK  128  A    between atoms: _291  and  _293
REMARK  129  A    between atoms: _293  and  _294
REMARK  130  A    between atoms: _293  and  _296
REMARK  131  A    between atoms: _296  and  _297
REMARK  132  A    between atoms: _300  and  _302
REMARK  133  A    between atoms: _302  and  _303
REMARK  134  A    between atoms: _302  and  _305
REMARK  135  A    between atoms: _308  and  _310
REMARK  136  A    between atoms: _310  and  _311
REMARK  137  A    between atoms: _310  and  _313
REMARK  138  A    between atoms: _313  and  _314
REMARK  139  A    between atoms: _314  and  _315
REMARK  140  A    between atoms: _315  and  _316
REMARK  141  A    between atoms: _316  and  _317
REMARK  142  A    between atoms: _321  and  _323
REMARK  143  A    between atoms: _323  and  _324
REMARK  144  A    between atoms: _323  and  _326
REMARK  145  A    between atoms: _326  and  _327
REMARK  146  A    between atoms: _333  and  _335
REMARK  147  A    between atoms: _335  and  _336
REMARK  148  A    between atoms: _335  and  _338
REMARK  149  A    between atoms: _340  and  _342
REMARK  150  A    between atoms: _342  and  _343
REMARK  151  A    between atoms: _342  and  _345
REMARK  152  A    between atoms: _345  and  _346
REMARK  153  A    between atoms: _352  and  _354
REMARK  154  A    between atoms: _354  and  _355
REMARK  155  A    between atoms: _354  and  _357
REMARK  156  A    between atoms: _357  and  _358
REMARK  157  A    between atoms: _358  and  _359
REMARK  158  A    between atoms: _359  and  _360
REMARK  159  A    between atoms: _360  and  _361
REMARK  160  A    between atoms: _365  and  _367
REMARK  161  A    between atoms: _367  and  _368
REMARK  162  A    between atoms: _367  and  _370
REMARK  163  A    between atoms: _370  and  _371
REMARK  164  A    between atoms: _374  and  _376
REMARK  165  A    between atoms: _376  and  _377
REMARK  166  A    between atoms: _376  and  _379
REMARK  167  A    between atoms: _379  and  _380
REMARK  168  A    between atoms: _383  and  _385
REMARK  169  A    between atoms: _385  and  _386
REMARK  170  A    between atoms: _385  and  _388
REMARK  171  A    between atoms: _388  and  _389
REMARK  172  A    between atoms: _399  and  _401
REMARK  173  A    between atoms: _401  and  _402
REMARK  174  A    between atoms: _401  and  _404
REMARK  175  A    between atoms: _404  and  _405
REMARK  176  A    between atoms: _410  and  _412
REMARK  177  A    between atoms: _412  and  _413
REMARK  178  A    between atoms: _412  and  _415
REMARK  179  A    between atoms: _415  and  _416
REMARK  180  A    between atoms: _422  and  _424
REMARK  181  A    between atoms: _424  and  _425
REMARK  182  A    between atoms: _424  and  _427
REMARK  183  A    between atoms: _427  and  _428
REMARK  184  A    between atoms: _432  and  _433
REMARK  185  A    between atoms: _438  and  _440
REMARK  186  A    between atoms: _440  and  _441
REMARK  187  A    between atoms: _440  and  _443
REMARK  188  A    between atoms: _443  and  _444
REMARK  189  A    between atoms: _447  and  _449
REMARK  190  A    between atoms: _449  and  _450
REMARK  191  A    between atoms: _449  and  _452
REMARK  192  A    between atoms: _452  and  _453
REMARK  193  A    between atoms: _458  and  _460
REMARK  194  A    between atoms: _460  and  _461
REMARK  195  A    between atoms: _460  and  _463
REMARK  196  A    between atoms: _463  and  _464
REMARK  197  A    between atoms: _470  and  _472
REMARK  198  A    between atoms: _472  and  _473
REMARK  199  A    between atoms: _472  and  _475
REMARK  200  A    between atoms: _478  and  _480
REMARK  201  A    between atoms: _480  and  _481
REMARK  202  A    between atoms: _480  and  _483
REMARK  203  A    between atoms: _486  and  _488
REMARK  204  A    between atoms: _488  and  _489
REMARK  205  A    between atoms: _491  and  _493
REMARK  206  A    between atoms: _493  and  _494
REMARK  207  A    between atoms: _493  and  _496
REMARK  208  A    between atoms: _496  and  _497
REMARK  209  A    between atoms: _499  and  _501
REMARK  210  A    between atoms: _501  and  _502
REMARK  211  A    between atoms: _501  and  _504
REMARK  212  A    between atoms: _504  and  _505
REMARK  213  A    between atoms: _508  and  _510
REMARK  214  A    between atoms: _510  and  _511
REMARK  215  A    between atoms: _510  and  _513
REMARK  216  A    between atoms: _513  and  _514
REMARK  217  A    between atoms: _514  and  _515
REMARK  218  A    between atoms: _515  and  MG_622
REMARK  219  A    between atoms: _517  and  _519
REMARK  220  A    between atoms: _519  and  _520
REMARK  221  A    between atoms: _519  and  _522
REMARK  222  A    between atoms: _522  and  _523
REMARK  223  A    between atoms: _528  and  _529
REMARK  224  A    between atoms: _531  and  _533
REMARK  225  A    between atoms: _533  and  _534
REMARK  226  A    between atoms: _533  and  _536
REMARK  227  A    between atoms: _536  and  _537
REMARK  228  A    between atoms: _542  and  _544
REMARK  229  A    between atoms: _544  and  _545
REMARK  230  A    between atoms: _544  and  _547
REMARK  231  A    between atoms: _547  and  _548
REMARK  232  A    between atoms: _548  and  _549
REMARK  233  A    between atoms: _552  and  _554
REMARK  234  A    between atoms: _554  and  _555
REMARK  235  A    between atoms: _554  and  _557
REMARK  236  A    between atoms: _557  and  _558
REMARK  237  A    between atoms: _561  and  _563
REMARK  238  A    between atoms: _563  and  _564
REMARK  239  A    between atoms: _563  and  _566
REMARK  240  A    between atoms: _566  and  _567
REMARK  241  A    between atoms: _567  and  _568
REMARK  242  A    between atoms: _568  and  _569
REMARK  243  A    between atoms: _578  and  _580
REMARK  244  A    between atoms: _580  and  _581
REMARK  245  A    between atoms: _580  and  _583
REMARK  246  A    between atoms: _585  and  _587
REMARK  247  A    between atoms: _587  and  _588
REMARK  248  A    between atoms: _587  and  _590
REMARK  249  A    between atoms: _592  and  _594
REMARK  250  A    between atoms: _594  and  _595
REMARK  251  A    between atoms: _594  and  _597
REMARK  252  A    between atoms: _597  and  _598
REMARK  253  A    between atoms: _601  and  _603
REMARK  254  A    between atoms: _603  and  _604
REMARK  255  A    between atoms: _603  and  _606
REMARK  256  A    between atoms: _609  and  _611
REMARK  257  A    between atoms: _611  and  _612
REMARK  258  A    between atoms: _611  and  _614
REMARK  259  A    between atoms: _614  and  _615
REMARK  260  A    between atoms: _615  and  _616
REMARK  261  A    between atoms: _616  and  _617
REMARK  262  A    between atoms: _617  and  _618
REMARK                            x       y       z     vdW  Elec       q    Type
REMARK                         _______ _______ _______ _____ _____    ______ ____
ROOT
ATOM      1  O   HOH     1      62.332  30.765  80.982  0.00  0.00    +0.000 OA
ENDROOT
TORSDOF 0
REMARK  Name = ../refined-set-2016/3ozg/3ozg_pocket.pdb
REMARK  262 active torsions:
REMARK  status: ('A' for Active; 'I' for Inactive)
REMARK    1  A    between atoms: _1  and  _3
REMARK    2  A    between atoms: _3  and  _4
REMARK    3  A    between atoms: _3  and  _6
REMARK    4  A    between atoms: _6  and  _7
REMARK    5  A    between atoms: _10  and  _12
REMARK    6  A    between atoms: _12  and  _13
REMARK    7  A    between atoms: _12  and  _15
REMARK    8  A    between atoms: _15  and  _16
REMARK    9  A    between atoms: _19  and  _21
REMARK   10  A    between atoms: _21  and  _22
REMARK   11  A    between atoms: _21  and  _24
REMARK   12  A    between atoms: _24  and  _25
REMARK   13  A    between atoms: _25  and  _26
REMARK   14  A    between atoms: _26  and  _27
REMARK   15  A    between atoms: _27  and  _28
REMARK   16  A    between atoms: _32  and  _34
REMARK   17  A    between atoms: _34  and  _35
REMARK   18  A    between atoms: _37  and  _39
REMARK   19  A    between atoms: _39  and  _40
REMARK   20  A    between atoms: _39  and  _42
REMARK   21  A    between atoms: _42  and  _43
REMARK   22  A    between atoms: _45  and  _47
REMARK   23  A    between atoms: _47  and  _48
REMARK   24  A    between atoms: _47  and  _50
REMARK   25  A    between atoms: _50  and  _51
REMARK   26  A    between atoms: _51  and  _52
REMARK   27  A    between atoms: _52  and  _53
REMARK   28  A    between atoms: _62  and  _64
REMARK   29  A    between atoms: _64  and  _65
REMARK   30  A    between atoms: _64  and  _67
REMARK   31  A    between atoms: _67  and  _68
REMARK   32  A    between atoms: _68  and  _69
REMARK   33  A    between atoms: _69  and  _70
REMARK   34  A    between atoms: _79  and  _81
REMARK   35  A    between atoms: _81  and  _82
REMARK   36  A    between atoms: _81  and  _84
REMARK   37  A    between atoms: _87  and  _89
REMARK   38  A    between atoms: _89  and  _90
REMARK   39  A    between atoms: _89  and  _92
REMARK   40  A    between atoms: _92  and  _93
REMARK   41  A    between atoms: _93  and  _94
REMARK   42  A    between atoms: _94  and  _95
REMARK   43  A    between atoms: _95  and  _96
REMARK   44  A    between atoms: _100  and  _102
REMARK   45  A    between atoms: _102  and  _103
REMARK   46  A    between atoms: _102  and  _105
REMARK   47  A    between atoms: _105  and  _106
REMARK   48  A    between atoms: _108  and  _110
REMARK   49  A    between atoms: _110  and  _111
REMARK   50  A    between atoms: _110  and  _113
REMARK   51  A    between atoms: _113  and  _114
REMARK   52  A    between atoms: _119  and  _120
REMARK   53  A    between atoms: _122  and  _124
REMARK   54  A    between atoms: _124  and  _125
REMARK   55  A    between atoms: _124  and  _127
REMARK   56  A    between atoms: _129  and  _131
REMARK   57  A    between atoms: _131  and  _132
REMARK   58  A    between atoms: _131  and  _134
REMARK   59  A    between atoms: _134  and  _135
REMARK   60  A    between atoms: _140  and  _142
REMARK   61  A    between atoms: _142  and  _143
REMARK   62  A    between atoms: _142  and  _145
REMARK   63  A    between atoms: _145  and  _146
REMARK   64  A    between atoms: _149  and  _151
REMARK   65  A    between atoms: _151  and  _152
REMARK   66  A    between atoms: _151  and  _154
REMARK   67  A    between atoms: _154  and  _155
REMARK   68  A    between atoms: _155  and  _156
REMARK   69  A    between atoms: _161  and  _163
REMARK   70  A    between atoms: _163  and  _164
REMARK   71  A    between atoms: _163  and  _166
REMARK   72  A    between atoms: _166  and  _167
REMARK   73  A    between atoms: _169  and  _171
REMARK   74  A    between atoms: _171  and  _172
REMARK   75  A    between atoms: _171  and  _174
REMARK   76  A    between atoms: _174  and  _175
REMARK   77  A    between atoms: _178  and  _180
REMARK   78  A    between atoms: _180  and  _181
REMARK   79  A    between atoms: _183  and  _185
REMARK   80  A    between atoms: _185  and  _186
REMARK   81  A    between atoms: _185  and  _188
REMARK   82  A    between atoms: _188  and  _189
REMARK   83  A    between atoms: _192  and  _194
REMARK   84  A    between atoms: _194  and  _195
REMARK   85  A    between atoms: _194  and  _197
REMARK   86  A    between atoms: _197  and  _198
REMARK   87  A    between atoms: _201  and  _203
REMARK   88  A    between atoms: _203  and  _204
REMARK   89  A    between atoms: _203  and  _206
REMARK   90  A    between atoms: _209  and  _211
REMARK   91  A    between atoms: _211  and  _212
REMARK   92  A    between atoms: _211  and  _214
REMARK   93  A    between atoms: _214  and  _215
REMARK   94  A    between atoms: _215  and  _216
REMARK   95  A    between atoms: _219  and  _221
REMARK   96  A    between atoms: _221  and  _222
REMARK   97  A    between atoms: _221  and  _224
REMARK   98  A    between atoms: _224  and  _225
REMARK   99  A    between atoms: _228  and  _230
REMARK  100  A    between atoms: _230  and  _231
REMARK  101  A    between atoms: _230  and  _233
REMARK  102  A    between atoms: _233  and  _234
REMARK  103  A    between atoms: _237  and  _239
REMARK  104  A    between atoms: _239  and  _240
REMARK  105  A    between atoms: _239  and  _242
REMARK  106  A    between atoms: _242  and  _243
REMARK  107  A    between atoms: _246  and  _248
REMARK  108  A    between atoms: _248  and  _249
REMARK  109  A    between atoms: _248  and  _251
REMARK  110  A    between atoms: _251  and  _252
REMARK  111  A    between atoms: _255  and  _257
REMARK  112  A    between atoms: _257  and  _258
REMARK  113  A    between atoms: _257  and  _260
REMARK  114  A    between atoms: _260  and  _261
REMARK  115  A    between atoms: _264  and  _266
REMARK  116  A    between atoms: _266  and  _267
REMARK  117  A    between atoms: _269  and  _271
REMARK  118  A    between atoms: _271  and  _272
REMARK  119  A    between atoms: _271  and  _274
REMARK  120  A    between atoms: _274  and  _275
REMARK  121  A    between atoms: _275  and  _276
REMARK  122  A    between atoms: _276  and  _277
REMARK  123  A    between atoms: _277  and  _278
REMARK  124  A    between atoms: _282  and  _284
REMARK  125  A    between atoms: _284  and  _285
REMARK  126  A    between atoms: _284  and  _287
REMARK  127  A    between atoms: _287  and  _288
REMARK  128  A    between atoms: _291  and  _293
REMARK  129  A    between atoms: _293  and  _294
REMARK  130  A    between atoms: _293  and  _296
REMARK  131  A    between atoms: _296  and  _297
REMARK  132  A    between atoms: _300  and  _302
REMARK  133  A    between atoms: _302  and  _303
REMARK  134  A    between atoms: _302  and  _305
REMARK  135  A    between atoms: _308  and  _310
REMARK  136  A    between atoms: _310  and  _311
REMARK  137  A    between atoms: _310  and  _313
REMARK  138  A    between atoms: _313  and  _314
REMARK  139  A    between atoms: _314  and  _315
REMARK  140  A    between atoms: _315  and  _316
REMARK  141  A    between atoms: _316  and  _317
REMARK  142  A    between atoms: _321  and  _323
REMARK  143  A    between atoms: _323  and  _324
REMARK  144  A    between atoms: _323  and  _326
REMARK  145  A    between atoms: _326  and  _327
REMARK  146  A    between atoms: _333  and  _335
REMARK  147  A    between atoms: _335  and  _336
REMARK  148  A    between atoms: _335  and  _338
REMARK  149  A    between atoms: _340  and  _342
REMARK  150  A    between atoms: _342  and  _343
REMARK  151  A    between atoms: _342  and  _345
REMARK  152  A    between atoms: _345  and  _346
REMARK  153  A    between atoms: _352  and  _354
REMARK  154  A    between atoms: _354  and  _355
REMARK  155  A    between atoms: _354  and  _357
REMARK  156  A    between atoms: _357  and  _358
REMARK  157  A    between atoms: _358  and  _359
REMARK  158  A    between atoms: _359  and  _360
REMARK  159  A    between atoms: _360  and  _361
REMARK  160  A    between atoms: _365  and  _367
REMARK  161  A    between atoms: _367  and  _368
REMARK  162  A    between atoms: _367  and  _370
REMARK  163  A    between atoms: _370  and  _371
REMARK  164  A    between atoms: _374  and  _376
REMARK  165  A    between atoms: _376  and  _377
REMARK  166  A    between atoms: _376  and  _379
REMARK  167  A    between atoms: _379  and  _380
REMARK  168  A    between atoms: _383  and  _385
REMARK  169  A    between atoms: _385  and  _386
REMARK  170  A    between atoms: _385  and  _388
REMARK  171  A    between atoms: _388  and  _389
REMARK  172  A    between atoms: _399  and  _401
REMARK  173  A    between atoms: _401  and  _402
REMARK  174  A    between atoms: _401  and  _404
REMARK  175  A    between atoms: _404  and  _405
REMARK  176  A    between atoms: _410  and  _412
REMARK  177  A    between atoms: _412  and  _413
REMARK  178  A    between atoms: _412  and  _415
REMARK  179  A    between atoms: _415  and  _416
REMARK  180  A    between atoms: _422  and  _424
REMARK  181  A    between atoms: _424  and  _425
REMARK  182  A    between atoms: _424  and  _427
REMARK  183  A    between atoms: _427  and  _428
REMARK  184  A    between atoms: _432  and  _433
REMARK  185  A    between atoms: _438  and  _440
REMARK  186  A    between atoms: _440  and  _441
REMARK  187  A    between atoms: _440  and  _443
REMARK  188  A    between atoms: _443  and  _444
REMARK  189  A    between atoms: _447  and  _449
REMARK  190  A    between atoms: _449  and  _450
REMARK  191  A    between atoms: _449  and  _452
REMARK  192  A    between atoms: _452  and  _453
REMARK  193  A    between atoms: _458  and  _460
REMARK  194  A    between atoms: _460  and  _461
REMARK  195  A    between atoms: _460  and  _463
REMARK  196  A    between atoms: _463  and  _464
REMARK  197  A    between atoms: _470  and  _472
REMARK  198  A    between atoms: _472  and  _473
REMARK  199  A    between atoms: _472  and  _475
REMARK  200  A    between atoms: _478  and  _480
REMARK  201  A    between atoms: _480  and  _481
REMARK  202  A    between atoms: _480  and  _483
REMARK  203  A    between atoms: _486  and  _488
REMARK  204  A    between atoms: _488  and  _489
REMARK  205  A    between atoms: _491  and  _493
REMARK  206  A    between atoms: _493  and  _494
REMARK  207  A    between atoms: _493  and  _496
REMARK  208  A    between atoms: _496  and  _497
REMARK  209  A    between atoms: _499  and  _501
REMARK  210  A    between atoms: _501  and  _502
REMARK  211  A    between atoms: _501  and  _504
REMARK  212  A    between atoms: _504  and  _505
REMARK  213  A    between atoms: _508  and  _510
REMARK  214  A    between atoms: _510  and  _511
REMARK  215  A    between atoms: _510  and  _513
REMARK  216  A    between atoms: _513  and  _514
REMARK  217  A    between atoms: _514  and  _515
REMARK  218  A    between atoms: _515  and  MG_622
REMARK  219  A    between atoms: _517  and  _519
REMARK  220  A    between atoms: _519  and  _520
REMARK  221  A    between atoms: _519  and  _522
REMARK  222  A    between atoms: _522  and  _523
REMARK  223  A    between atoms: _528  and  _529
REMARK  224  A    between atoms: _531  and  _533
REMARK  225  A    between atoms: _533  and  _534
REMARK  226  A    between atoms: _533  and  _536
REMARK  227  A    between atoms: _536  and  _537
REMARK  228  A    between atoms: _542  and  _544
REMARK  229  A    between atoms: _544  and  _545
REMARK  230  A    between atoms: _544  and  _547
REMARK  231  A    between atoms: _547  and  _548
REMARK  232  A    between atoms: _548  and  _549
REMARK  233  A    between atoms: _552  and  _554
REMARK  234  A    between atoms: _554  and  _555
REMARK  235  A    between atoms: _554  and  _557
REMARK  236  A    between atoms: _557  and  _558
REMARK  237  A    between atoms: _561  and  _563
REMARK  238  A    between atoms: _563  and  _564
REMARK  239  A    between atoms: _563  and  _566
REMARK  240  A    between atoms: _566  and  _567
REMARK  241  A    between atoms: _567  and  _568
REMARK  242  A    between atoms: _568  and  _569
REMARK  243  A    between atoms: _578  and  _580
REMARK  244  A    between atoms: _580  and  _581
REMARK  245  A    between atoms: _580  and  _583
REMARK  246  A    between atoms: _585  and  _587
REMARK  247  A    between atoms: _587  and  _588
REMARK  248  A    between atoms: _587  and  _590
REMARK  249  A    between atoms: _592  and  _594
REMARK  250  A    between atoms: _594  and  _595
REMARK  251  A    between atoms: _594  and  _597
REMARK  252  A    between atoms: _597  and  _598
REMARK  253  A    between atoms: _601  and  _603
REMARK  254  A    between atoms: _603  and  _604
REMARK  255  A    between atoms: _603  and  _606
REMARK  256  A    between atoms: _609  and  _611
REMARK  257  A    between atoms: _611  and  _612
REMARK  258  A    between atoms: _611  and  _614
REMARK  259  A    between atoms: _614  and  _615
REMARK  260  A    between atoms: _615  and  _616
REMARK  261  A    between atoms: _616  and  _617
REMARK  262  A    between atoms: _617  and  _618
REMARK                            x       y       z     vdW  Elec       q    Type
REMARK                         _______ _______ _______ _____ _____    ______ ____
ROOT
ATOM      1  O   HOH     1      59.329  31.449  79.077  0.00  0.00    +0.000 OA
ENDROOT
TORSDOF 0
REMARK  Name = ../refined-set-2016/3ozg/3ozg_pocket.pdb
REMARK  262 active torsions:
REMARK  status: ('A' for Active; 'I' for Inactive)
REMARK    1  A    between atoms: _1  and  _3
REMARK    2  A    between atoms: _3  and  _4
REMARK    3  A    between atoms: _3  and  _6
REMARK    4  A    between atoms: _6  and  _7
REMARK    5  A    between atoms: _10  and  _12
REMARK    6  A    between atoms: _12  and  _13
REMARK    7  A    between atoms: _12  and  _15
REMARK    8  A    between atoms: _15  and  _16
REMARK    9  A    between atoms: _19  and  _21
REMARK   10  A    between atoms: _21  and  _22
REMARK   11  A    between atoms: _21  and  _24
REMARK   12  A    between atoms: _24  and  _25
REMARK   13  A    between atoms: _25  and  _26
REMARK   14  A    between atoms: _26  and  _27
REMARK   15  A    between atoms: _27  and  _28
REMARK   16  A    between atoms: _32  and  _34
REMARK   17  A    between atoms: _34  and  _35
REMARK   18  A    between atoms: _37  and  _39
REMARK   19  A    between atoms: _39  and  _40
REMARK   20  A    between atoms: _39  and  _42
REMARK   21  A    between atoms: _42  and  _43
REMARK   22  A    between atoms: _45  and  _47
REMARK   23  A    between atoms: _47  and  _48
REMARK   24  A    between atoms: _47  and  _50
REMARK   25  A    between atoms: _50  and  _51
REMARK   26  A    between atoms: _51  and  _52
REMARK   27  A    between atoms: _52  and  _53
REMARK   28  A    between atoms: _62  and  _64
REMARK   29  A    between atoms: _64  and  _65
REMARK   30  A    between atoms: _64  and  _67
REMARK   31  A    between atoms: _67  and  _68
REMARK   32  A    between atoms: _68  and  _69
REMARK   33  A    between atoms: _69  and  _70
REMARK   34  A    between atoms: _79  and  _81
REMARK   35  A    between atoms: _81  and  _82
REMARK   36  A    between atoms: _81  and  _84
REMARK   37  A    between atoms: _87  and  _89
REMARK   38  A    between atoms: _89  and  _90
REMARK   39  A    between atoms: _89  and  _92
REMARK   40  A    between atoms: _92  and  _93
REMARK   41  A    between atoms: _93  and  _94
REMARK   42  A    between atoms: _94  and  _95
REMARK   43  A    between atoms: _95  and  _96
REMARK   44  A    between atoms: _100  and  _102
REMARK   45  A    between atoms: _102  and  _103
REMARK   46  A    between atoms: _102  and  _105
REMARK   47  A    between atoms: _105  and  _106
REMARK   48  A    between atoms: _108  and  _110
REMARK   49  A    between atoms: _110  and  _111
REMARK   50  A    between atoms: _110  and  _113
REMARK   51  A    between atoms: _113  and  _114
REMARK   52  A    between atoms: _119  and  _120
REMARK   53  A    between atoms: _122  and  _124
REMARK   54  A    between atoms: _124  and  _125
REMARK   55  A    between atoms: _124  and  _127
REMARK   56  A    between atoms: _129  and  _131
REMARK   57  A    between atoms: _131  and  _132
REMARK   58  A    between atoms: _131  and  _134
REMARK   59  A    between atoms: _134  and  _135
REMARK   60  A    between atoms: _140  and  _142
REMARK   61  A    between atoms: _142  and  _143
REMARK   62  A    between atoms: _142  and  _145
REMARK   63  A    between atoms: _145  and  _146
REMARK   64  A    between atoms: _149  and  _151
REMARK   65  A    between atoms: _151  and  _152
REMARK   66  A    between atoms: _151  and  _154
REMARK   67  A    between atoms: _154  and  _155
REMARK   68  A    between atoms: _155  and  _156
REMARK   69  A    between atoms: _161  and  _163
REMARK   70  A    between atoms: _163  and  _164
REMARK   71  A    between atoms: _163  and  _166
REMARK   72  A    between atoms: _166  and  _167
REMARK   73  A    between atoms: _169  and  _171
REMARK   74  A    between atoms: _171  and  _172
REMARK   75  A    between atoms: _171  and  _174
REMARK   76  A    between atoms: _174  and  _175
REMARK   77  A    between atoms: _178  and  _180
REMARK   78  A    between atoms: _180  and  _181
REMARK   79  A    between atoms: _183  and  _185
REMARK   80  A    between atoms: _185  and  _186
REMARK   81  A    between atoms: _185  and  _188
REMARK   82  A    between atoms: _188  and  _189
REMARK   83  A    between atoms: _192  and  _194
REMARK   84  A    between atoms: _194  and  _195
REMARK   85  A    between atoms: _194  and  _197
REMARK   86  A    between atoms: _197  and  _198
REMARK   87  A    between atoms: _201  and  _203
REMARK   88  A    between atoms: _203  and  _204
REMARK   89  A    between atoms: _203  and  _206
REMARK   90  A    between atoms: _209  and  _211
REMARK   91  A    between atoms: _211  and  _212
REMARK   92  A    between atoms: _211  and  _214
REMARK   93  A    between atoms: _214  and  _215
REMARK   94  A    between atoms: _215  and  _216
REMARK   95  A    between atoms: _219  and  _221
REMARK   96  A    between atoms: _221  and  _222
REMARK   97  A    between atoms: _221  and  _224
REMARK   98  A    between atoms: _224  and  _225
REMARK   99  A    between atoms: _228  and  _230
REMARK  100  A    between atoms: _230  and  _231
REMARK  101  A    between atoms: _230  and  _233
REMARK  102  A    between atoms: _233  and  _234
REMARK  103  A    between atoms: _237  and  _239
REMARK  104  A    between atoms: _239  and  _240
REMARK  105  A    between atoms: _239  and  _242
REMARK  106  A    between atoms: _242  and  _243
REMARK  107  A    between atoms: _246  and  _248
REMARK  108  A    between atoms: _248  and  _249
REMARK  109  A    between atoms: _248  and  _251
REMARK  110  A    between atoms: _251  and  _252
REMARK  111  A    between atoms: _255  and  _257
REMARK  112  A    between atoms: _257  and  _258
REMARK  113  A    between atoms: _257  and  _260
REMARK  114  A    between atoms: _260  and  _261
REMARK  115  A    between atoms: _264  and  _266
REMARK  116  A    between atoms: _266  and  _267
REMARK  117  A    between atoms: _269  and  _271
REMARK  118  A    between atoms: _271  and  _272
REMARK  119  A    between atoms: _271  and  _274
REMARK  120  A    between atoms: _274  and  _275
REMARK  121  A    between atoms: _275  and  _276
REMARK  122  A    between atoms: _276  and  _277
REMARK  123  A    between atoms: _277  and  _278
REMARK  124  A    between atoms: _282  and  _284
REMARK  125  A    between atoms: _284  and  _285
REMARK  126  A    between atoms: _284  and  _287
REMARK  127  A    between atoms: _287  and  _288
REMARK  128  A    between atoms: _291  and  _293
REMARK  129  A    between atoms: _293  and  _294
REMARK  130  A    between atoms: _293  and  _296
REMARK  131  A    between atoms: _296  and  _297
REMARK  132  A    between atoms: _300  and  _302
REMARK  133  A    between atoms: _302  and  _303
REMARK  134  A    between atoms: _302  and  _305
REMARK  135  A    between atoms: _308  and  _310
REMARK  136  A    between atoms: _310  and  _311
REMARK  137  A    between atoms: _310  and  _313
REMARK  138  A    between atoms: _313  and  _314
REMARK  139  A    between atoms: _314  and  _315
REMARK  140  A    between atoms: _315  and  _316
REMARK  141  A    between atoms: _316  and  _317
REMARK  142  A    between atoms: _321  and  _323
REMARK  143  A    between atoms: _323  and  _324
REMARK  144  A    between atoms: _323  and  _326
REMARK  145  A    between atoms: _326  and  _327
REMARK  146  A    between atoms: _333  and  _335
REMARK  147  A    between atoms: _335  and  _336
REMARK  148  A    between atoms: _335  and  _338
REMARK  149  A    between atoms: _340  and  _342
REMARK  150  A    between atoms: _342  and  _343
REMARK  151  A    between atoms: _342  and  _345
REMARK  152  A    between atoms: _345  and  _346
REMARK  153  A    between atoms: _352  and  _354
REMARK  154  A    between atoms: _354  and  _355
REMARK  155  A    between atoms: _354  and  _357
REMARK  156  A    between atoms: _357  and  _358
REMARK  157  A    between atoms: _358  and  _359
REMARK  158  A    between atoms: _359  and  _360
REMARK  159  A    between atoms: _360  and  _361
REMARK  160  A    between atoms: _365  and  _367
REMARK  161  A    between atoms: _367  and  _368
REMARK  162  A    between atoms: _367  and  _370
REMARK  163  A    between atoms: _370  and  _371
REMARK  164  A    between atoms: _374  and  _376
REMARK  165  A    between atoms: _376  and  _377
REMARK  166  A    between atoms: _376  and  _379
REMARK  167  A    between atoms: _379  and  _380
REMARK  168  A    between atoms: _383  and  _385
REMARK  169  A    between atoms: _385  and  _386
REMARK  170  A    between atoms: _385  and  _388
REMARK  171  A    between atoms: _388  and  _389
REMARK  172  A    between atoms: _399  and  _401
REMARK  173  A    between atoms: _401  and  _402
REMARK  174  A    between atoms: _401  and  _404
REMARK  175  A    between atoms: _404  and  _405
REMARK  176  A    between atoms: _410  and  _412
REMARK  177  A    between atoms: _412  and  _413
REMARK  178  A    between atoms: _412  and  _415
REMARK  179  A    between atoms: _415  and  _416
REMARK  180  A    between atoms: _422  and  _424
REMARK  181  A    between atoms: _424  and  _425
REMARK  182  A    between atoms: _424  and  _427
REMARK  183  A    between atoms: _427  and  _428
REMARK  184  A    between atoms: _432  and  _433
REMARK  185  A    between atoms: _438  and  _440
REMARK  186  A    between atoms: _440  and  _441
REMARK  187  A    between atoms: _440  and  _443
REMARK  188  A    between atoms: _443  and  _444
REMARK  189  A    between atoms: _447  and  _449
REMARK  190  A    between atoms: _449  and  _450
REMARK  191  A    between atoms: _449  and  _452
REMARK  192  A    between atoms: _452  and  _453
REMARK  193  A    between atoms: _458  and  _460
REMARK  194  A    between atoms: _460  and  _461
REMARK  195  A    between atoms: _460  and  _463
REMARK  196  A    between atoms: _463  and  _464
REMARK  197  A    between atoms: _470  and  _472
REMARK  198  A    between atoms: _472  and  _473
REMARK  199  A    between atoms: _472  and  _475
REMARK  200  A    between atoms: _478  and  _480
REMARK  201  A    between atoms: _480  and  _481
REMARK  202  A    between atoms: _480  and  _483
REMARK  203  A    between atoms: _486  and  _488
REMARK  204  A    between atoms: _488  and  _489
REMARK  205  A    between atoms: _491  and  _493
REMARK  206  A    between atoms: _493  and  _494
REMARK  207  A    between atoms: _493  and  _496
REMARK  208  A    between atoms: _496  and  _497
REMARK  209  A    between atoms: _499  and  _501
REMARK  210  A    between atoms: _501  and  _502
REMARK  211  A    between atoms: _501  and  _504
REMARK  212  A    between atoms: _504  and  _505
REMARK  213  A    between atoms: _508  and  _510
REMARK  214  A    between atoms: _510  and  _511
REMARK  215  A    between atoms: _510  and  _513
REMARK  216  A    between atoms: _513  and  _514
REMARK  217  A    between atoms: _514  and  _515
REMARK  218  A    between atoms: _515  and  MG_622
REMARK  219  A    between atoms: _517  and  _519
REMARK  220  A    between atoms: _519  and  _520
REMARK  221  A    between atoms: _519  and  _522
REMARK  222  A    between atoms: _522  and  _523
REMARK  223  A    between atoms: _528  and  _529
REMARK  224  A    between atoms: _531  and  _533
REMARK  225  A    between atoms: _533  and  _534
REMARK  226  A    between atoms: _533  and  _536
REMARK  227  A    between atoms: _536  and  _537
REMARK  228  A    between atoms: _542  and  _544
REMARK  229  A    between atoms: _544  and  _545
REMARK  230  A    between atoms: _544  and  _547
REMARK  231  A    between atoms: _547  and  _548
REMARK  232  A    between atoms: _548  and  _549
REMARK  233  A    between atoms: _552  and  _554
REMARK  234  A    between atoms: _554  and  _555
REMARK  235  A    between atoms: _554  and  _557
REMARK  236  A    between atoms: _557  and  _558
REMARK  237  A    between atoms: _561  and  _563
REMARK  238  A    between atoms: _563  and  _564
REMARK  239  A    between atoms: _563  and  _566
REMARK  240  A    between atoms: _566  and  _567
REMARK  241  A    between atoms: _567  and  _568
REMARK  242  A    between atoms: _568  and  _569
REMARK  243  A    between atoms: _578  and  _580
REMARK  244  A    between atoms: _580  and  _581
REMARK  245  A    between atoms: _580  and  _583
REMARK  246  A    between atoms: _585  and  _587
REMARK  247  A    between atoms: _587  and  _588
REMARK  248  A    between atoms: _587  and  _590
REMARK  249  A    between atoms: _592  and  _594
REMARK  250  A    between atoms: _594  and  _595
REMARK  251  A    between atoms: _594  and  _597
REMARK  252  A    between atoms: _597  and  _598
REMARK  253  A    between atoms: _601  and  _603
REMARK  254  A    between atoms: _603  and  _604
REMARK  255  A    between atoms: _603  and  _606
REMARK  256  A    between atoms: _609  and  _611
REMARK  257  A    between atoms: _611  and  _612
REMARK  258  A    between atoms: _611  and  _614
REMARK  259  A    between atoms: _614  and  _615
REMARK  260  A    between atoms: _615  and  _616
REMARK  261  A    between atoms: _616  and  _617
REMARK  262  A    between atoms: _617  and  _618
REMARK                            x       y       z     vdW  Elec       q    Type
REMARK                         _______ _______ _______ _____ _____    ______ ____
ROOT
ATOM      1  O   HOH     1      59.496  36.800  76.565  0.00  0.00    +0.000 OA
ENDROOT
TORSDOF 0
REMARK  Name = ../refined-set-2016/3ozg/3ozg_pocket.pdb
REMARK  262 active torsions:
REMARK  status: ('A' for Active; 'I' for Inactive)
REMARK    1  A    between atoms: _1  and  _3
REMARK    2  A    between atoms: _3  and  _4
REMARK    3  A    between atoms: _3  and  _6
REMARK    4  A    between atoms: _6  and  _7
REMARK    5  A    between atoms: _10  and  _12
REMARK    6  A    between atoms: _12  and  _13
REMARK    7  A    between atoms: _12  and  _15
REMARK    8  A    between atoms: _15  and  _16
REMARK    9  A    between atoms: _19  and  _21
REMARK   10  A    between atoms: _21  and  _22
REMARK   11  A    between atoms: _21  and  _24
REMARK   12  A    between atoms: _24  and  _25
REMARK   13  A    between atoms: _25  and  _26
REMARK   14  A    between atoms: _26  and  _27
REMARK   15  A    between atoms: _27  and  _28
REMARK   16  A    between atoms: _32  and  _34
REMARK   17  A    between atoms: _34  and  _35
REMARK   18  A    between atoms: _37  and  _39
REMARK   19  A    between atoms: _39  and  _40
REMARK   20  A    between atoms: _39  and  _42
REMARK   21  A    between atoms: _42  and  _43
REMARK   22  A    between atoms: _45  and  _47
REMARK   23  A    between atoms: _47  and  _48
REMARK   24  A    between atoms: _47  and  _50
REMARK   25  A    between atoms: _50  and  _51
REMARK   26  A    between atoms: _51  and  _52
REMARK   27  A    between atoms: _52  and  _53
REMARK   28  A    between atoms: _62  and  _64
REMARK   29  A    between atoms: _64  and  _65
REMARK   30  A    between atoms: _64  and  _67
REMARK   31  A    between atoms: _67  and  _68
REMARK   32  A    between atoms: _68  and  _69
REMARK   33  A    between atoms: _69  and  _70
REMARK   34  A    between atoms: _79  and  _81
REMARK   35  A    between atoms: _81  and  _82
REMARK   36  A    between atoms: _81  and  _84
REMARK   37  A    between atoms: _87  and  _89
REMARK   38  A    between atoms: _89  and  _90
REMARK   39  A    between atoms: _89  and  _92
REMARK   40  A    between atoms: _92  and  _93
REMARK   41  A    between atoms: _93  and  _94
REMARK   42  A    between atoms: _94  and  _95
REMARK   43  A    between atoms: _95  and  _96
REMARK   44  A    between atoms: _100  and  _102
REMARK   45  A    between atoms: _102  and  _103
REMARK   46  A    between atoms: _102  and  _105
REMARK   47  A    between atoms: _105  and  _106
REMARK   48  A    between atoms: _108  and  _110
REMARK   49  A    between atoms: _110  and  _111
REMARK   50  A    between atoms: _110  and  _113
REMARK   51  A    between atoms: _113  and  _114
REMARK   52  A    between atoms: _119  and  _120
REMARK   53  A    between atoms: _122  and  _124
REMARK   54  A    between atoms: _124  and  _125
REMARK   55  A    between atoms: _124  and  _127
REMARK   56  A    between atoms: _129  and  _131
REMARK   57  A    between atoms: _131  and  _132
REMARK   58  A    between atoms: _131  and  _134
REMARK   59  A    between atoms: _134  and  _135
REMARK   60  A    between atoms: _140  and  _142
REMARK   61  A    between atoms: _142  and  _143
REMARK   62  A    between atoms: _142  and  _145
REMARK   63  A    between atoms: _145  and  _146
REMARK   64  A    between atoms: _149  and  _151
REMARK   65  A    between atoms: _151  and  _152
REMARK   66  A    between atoms: _151  and  _154
REMARK   67  A    between atoms: _154  and  _155
REMARK   68  A    between atoms: _155  and  _156
REMARK   69  A    between atoms: _161  and  _163
REMARK   70  A    between atoms: _163  and  _164
REMARK   71  A    between atoms: _163  and  _166
REMARK   72  A    between atoms: _166  and  _167
REMARK   73  A    between atoms: _169  and  _171
REMARK   74  A    between atoms: _171  and  _172
REMARK   75  A    between atoms: _171  and  _174
REMARK   76  A    between atoms: _174  and  _175
REMARK   77  A    between atoms: _178  and  _180
REMARK   78  A    between atoms: _180  and  _181
REMARK   79  A    between atoms: _183  and  _185
REMARK   80  A    between atoms: _185  and  _186
REMARK   81  A    between atoms: _185  and  _188
REMARK   82  A    between atoms: _188  and  _189
REMARK   83  A    between atoms: _192  and  _194
REMARK   84  A    between atoms: _194  and  _195
REMARK   85  A    between atoms: _194  and  _197
REMARK   86  A    between atoms: _197  and  _198
REMARK   87  A    between atoms: _201  and  _203
REMARK   88  A    between atoms: _203  and  _204
REMARK   89  A    between atoms: _203  and  _206
REMARK   90  A    between atoms: _209  and  _211
REMARK   91  A    between atoms: _211  and  _212
REMARK   92  A    between atoms: _211  and  _214
REMARK   93  A    between atoms: _214  and  _215
REMARK   94  A    between atoms: _215  and  _216
REMARK   95  A    between atoms: _219  and  _221
REMARK   96  A    between atoms: _221  and  _222
REMARK   97  A    between atoms: _221  and  _224
REMARK   98  A    between atoms: _224  and  _225
REMARK   99  A    between atoms: _228  and  _230
REMARK  100  A    between atoms: _230  and  _231
REMARK  101  A    between atoms: _230  and  _233
REMARK  102  A    between atoms: _233  and  _234
REMARK  103  A    between atoms: _237  and  _239
REMARK  104  A    between atoms: _239  and  _240
REMARK  105  A    between atoms: _239  and  _242
REMARK  106  A    between atoms: _242  and  _243
REMARK  107  A    between atoms: _246  and  _248
REMARK  108  A    between atoms: _248  and  _249
REMARK  109  A    between atoms: _248  and  _251
REMARK  110  A    between atoms: _251  and  _252
REMARK  111  A    between atoms: _255  and  _257
REMARK  112  A    between atoms: _257  and  _258
REMARK  113  A    between atoms: _257  and  _260
REMARK  114  A    between atoms: _260  and  _261
REMARK  115  A    between atoms: _264  and  _266
REMARK  116  A    between atoms: _266  and  _267
REMARK  117  A    between atoms: _269  and  _271
REMARK  118  A    between atoms: _271  and  _272
REMARK  119  A    between atoms: _271  and  _274
REMARK  120  A    between atoms: _274  and  _275
REMARK  121  A    between atoms: _275  and  _276
REMARK  122  A    between atoms: _276  and  _277
REMARK  123  A    between atoms: _277  and  _278
REMARK  124  A    between atoms: _282  and  _284
REMARK  125  A    between atoms: _284  and  _285
REMARK  126  A    between atoms: _284  and  _287
REMARK  127  A    between atoms: _287  and  _288
REMARK  128  A    between atoms: _291  and  _293
REMARK  129  A    between atoms: _293  and  _294
REMARK  130  A    between atoms: _293  and  _296
REMARK  131  A    between atoms: _296  and  _297
REMARK  132  A    between atoms: _300  and  _302
REMARK  133  A    between atoms: _302  and  _303
REMARK  134  A    between atoms: _302  and  _305
REMARK  135  A    between atoms: _308  and  _310
REMARK  136  A    between atoms: _310  and  _311
REMARK  137  A    between atoms: _310  and  _313
REMARK  138  A    between atoms: _313  and  _314
REMARK  139  A    between atoms: _314  and  _315
REMARK  140  A    between atoms: _315  and  _316
REMARK  141  A    between atoms: _316  and  _317
REMARK  142  A    between atoms: _321  and  _323
REMARK  143  A    between atoms: _323  and  _324
REMARK  144  A    between atoms: _323  and  _326
REMARK  145  A    between atoms: _326  and  _327
REMARK  146  A    between atoms: _333  and  _335
REMARK  147  A    between atoms: _335  and  _336
REMARK  148  A    between atoms: _335  and  _338
REMARK  149  A    between atoms: _340  and  _342
REMARK  150  A    between atoms: _342  and  _343
REMARK  151  A    between atoms: _342  and  _345
REMARK  152  A    between atoms: _345  and  _346
REMARK  153  A    between atoms: _352  and  _354
REMARK  154  A    between atoms: _354  and  _355
REMARK  155  A    between atoms: _354  and  _357
REMARK  156  A    between atoms: _357  and  _358
REMARK  157  A    between atoms: _358  and  _359
REMARK  158  A    between atoms: _359  and  _360
REMARK  159  A    between atoms: _360  and  _361
REMARK  160  A    between atoms: _365  and  _367
REMARK  161  A    between atoms: _367  and  _368
REMARK  162  A    between atoms: _367  and  _370
REMARK  163  A    between atoms: _370  and  _371
REMARK  164  A    between atoms: _374  and  _376
REMARK  165  A    between atoms: _376  and  _377
REMARK  166  A    between atoms: _376  and  _379
REMARK  167  A    between atoms: _379  and  _380
REMARK  168  A    between atoms: _383  and  _385
REMARK  169  A    between atoms: _385  and  _386
REMARK  170  A    between atoms: _385  and  _388
REMARK  171  A    between atoms: _388  and  _389
REMARK  172  A    between atoms: _399  and  _401
REMARK  173  A    between atoms: _401  and  _402
REMARK  174  A    between atoms: _401  and  _404
REMARK  175  A    between atoms: _404  and  _405
REMARK  176  A    between atoms: _410  and  _412
REMARK  177  A    between atoms: _412  and  _413
REMARK  178  A    between atoms: _412  and  _415
REMARK  179  A    between atoms: _415  and  _416
REMARK  180  A    between atoms: _422  and  _424
REMARK  181  A    between atoms: _424  and  _425
REMARK  182  A    between atoms: _424  and  _427
REMARK  183  A    between atoms: _427  and  _428
REMARK  184  A    between atoms: _432  and  _433
REMARK  185  A    between atoms: _438  and  _440
REMARK  186  A    between atoms: _440  and  _441
REMARK  187  A    between atoms: _440  and  _443
REMARK  188  A    between atoms: _443  and  _444
REMARK  189  A    between atoms: _447  and  _449
REMARK  190  A    between atoms: _449  and  _450
REMARK  191  A    between atoms: _449  and  _452
REMARK  192  A    between atoms: _452  and  _453
REMARK  193  A    between atoms: _458  and  _460
REMARK  194  A    between atoms: _460  and  _461
REMARK  195  A    between atoms: _460  and  _463
REMARK  196  A    between atoms: _463  and  _464
REMARK  197  A    between atoms: _470  and  _472
REMARK  198  A    between atoms: _472  and  _473
REMARK  199  A    between atoms: _472  and  _475
REMARK  200  A    between atoms: _478  and  _480
REMARK  201  A    between atoms: _480  and  _481
REMARK  202  A    between atoms: _480  and  _483
REMARK  203  A    between atoms: _486  and  _488
REMARK  204  A    between atoms: _488  and  _489
REMARK  205  A    between atoms: _491  and  _493
REMARK  206  A    between atoms: _493  and  _494
REMARK  207  A    between atoms: _493  and  _496
REMARK  208  A    between atoms: _496  and  _497
REMARK  209  A    between atoms: _499  and  _501
REMARK  210  A    between atoms: _501  and  _502
REMARK  211  A    between atoms: _501  and  _504
REMARK  212  A    between atoms: _504  and  _505
REMARK  213  A    between atoms: _508  and  _510
REMARK  214  A    between atoms: _510  and  _511
REMARK  215  A    between atoms: _510  and  _513
REMARK  216  A    between atoms: _513  and  _514
REMARK  217  A    between atoms: _514  and  _515
REMARK  218  A    between atoms: _515  and  MG_622
REMARK  219  A    between atoms: _517  and  _519
REMARK  220  A    between atoms: _519  and  _520
REMARK  221  A    between atoms: _519  and  _522
REMARK  222  A    between atoms: _522  and  _523
REMARK  223  A    between atoms: _528  and  _529
REMARK  224  A    between atoms: _531  and  _533
REMARK  225  A    between atoms: _533  and  _534
REMARK  226  A    between atoms: _533  and  _536
REMARK  227  A    between atoms: _536  and  _537
REMARK  228  A    between atoms: _542  and  _544
REMARK  229  A    between atoms: _544  and  _545
REMARK  230  A    between atoms: _544  and  _547
REMARK  231  A    between atoms: _547  and  _548
REMARK  232  A    between atoms: _548  and  _549
REMARK  233  A    between atoms: _552  and  _554
REMARK  234  A    between atoms: _554  and  _555
REMARK  235  A    between atoms: _554  and  _557
REMARK  236  A    between atoms: _557  and  _558
REMARK  237  A    between atoms: _561  and  _563
REMARK  238  A    between atoms: _563  and  _564
REMARK  239  A    between atoms: _563  and  _566
REMARK  240  A    between atoms: _566  and  _567
REMARK  241  A    between atoms: _567  and  _568
REMARK  242  A    between atoms: _568  and  _569
REMARK  243  A    between atoms: _578  and  _580
REMARK  244  A    between atoms: _580  and  _581
REMARK  245  A    between atoms: _580  and  _583
REMARK  246  A    between atoms: _585  and  _587
REMARK  247  A    between atoms: _587  and  _588
REMARK  248  A    between atoms: _587  and  _590
REMARK  249  A    between atoms: _592  and  _594
REMARK  250  A    between atoms: _594  and  _595
REMARK  251  A    between atoms: _594  and  _597
REMARK  252  A    between atoms: _597  and  _598
REMARK  253  A    between atoms: _601  and  _603
REMARK  254  A    between atoms: _603  and  _604
REMARK  255  A    between atoms: _603  and  _606
REMARK  256  A    between atoms: _609  and  _611
REMARK  257  A    between atoms: _611  and  _612
REMARK  258  A    between atoms: _611  and  _614
REMARK  259  A    between atoms: _614  and  _615
REMARK  260  A    between atoms: _615  and  _616
REMARK  261  A    between atoms: _616  and  _617
REMARK  262  A    between atoms: _617  and  _618
REMARK                            x       y       z     vdW  Elec       q    Type
REMARK                         _______ _______ _______ _____ _____    ______ ____
ROOT
ATOM      1  O   HOH     1      57.595  34.934  73.442  0.00  0.00    +0.000 OA
ENDROOT
TORSDOF 0
