REMARK  Name = ../refined-set-2016/2p4s/2p4s_pocket.pdb
REMARK  194 active torsions:
REMARK  status: ('A' for Active; 'I' for Inactive)
REMARK    1  A    between atoms: _1  and  _3
REMARK    2  A    between atoms: _3  and  _4
REMARK    3  A    between atoms: _6  and  _8
REMARK    4  A    between atoms: _8  and  _9
REMARK    5  A    between atoms: _8  and  _11
REMARK    6  A    between atoms: _11  and  _12
REMARK    7  A    between atoms: _14  and  _16
REMARK    8  A    between atoms: _16  and  _17
REMARK    9  A    between atoms: _19  and  _21
REMARK   10  A    between atoms: _21  and  _22
REMARK   11  A    between atoms: _21  and  _24
REMARK   12  A    between atoms: _27  and  _29
REMARK   13  A    between atoms: _29  and  _30
REMARK   14  A    between atoms: _33  and  _35
REMARK   15  A    between atoms: _35  and  _36
REMARK   16  A    between atoms: _35  and  _38
REMARK   17  A    between atoms: _38  and  _39
REMARK   18  A    between atoms: _44  and  _46
REMARK   19  A    between atoms: _46  and  _47
REMARK   20  A    between atoms: _46  and  _49
REMARK   21  A    between atoms: _49  and  _50
REMARK   22  A    between atoms: _50  and  _51
REMARK   23  A    between atoms: _51  and  _52
REMARK   24  A    between atoms: _61  and  _63
REMARK   25  A    between atoms: _63  and  _64
REMARK   26  A    between atoms: _63  and  _66
REMARK   27  A    between atoms: _66  and  _67
REMARK   28  A    between atoms: _73  and  _75
REMARK   29  A    between atoms: _75  and  _76
REMARK   30  A    between atoms: _75  and  _78
REMARK   31  A    between atoms: _78  and  _79
REMARK   32  A    between atoms: _84  and  _86
REMARK   33  A    between atoms: _86  and  _87
REMARK   34  A    between atoms: _86  and  _89
REMARK   35  A    between atoms: _89  and  _90
REMARK   36  A    between atoms: _95  and  _97
REMARK   37  A    between atoms: _97  and  _98
REMARK   38  A    between atoms: _97  and  _100
REMARK   39  A    between atoms: _100  and  _101
REMARK   40  A    between atoms: _106  and  _107
REMARK   41  A    between atoms: _109  and  _111
REMARK   42  A    between atoms: _111  and  _112
REMARK   43  A    between atoms: _111  and  _114
REMARK   44  A    between atoms: _114  and  _115
REMARK   45  A    between atoms: _115  and  _116
REMARK   46  A    between atoms: _119  and  _121
REMARK   47  A    between atoms: _121  and  _122
REMARK   48  A    between atoms: _121  and  _124
REMARK   49  A    between atoms: _124  and  _125
REMARK   50  A    between atoms: _130  and  _132
REMARK   51  A    between atoms: _132  and  _133
REMARK   52  A    between atoms: _136  and  _138
REMARK   53  A    between atoms: _138  and  _139
REMARK   54  A    between atoms: _142  and  _144
REMARK   55  A    between atoms: _144  and  _145
REMARK   56  A    between atoms: _147  and  _149
REMARK   57  A    between atoms: _149  and  _150
REMARK   58  A    between atoms: _152  and  _154
REMARK   59  A    between atoms: _154  and  _155
REMARK   60  A    between atoms: _158  and  _160
REMARK   61  A    between atoms: _160  and  _161
REMARK   62  A    between atoms: _160  and  _163
REMARK   63  A    between atoms: _163  and  _164
REMARK   64  A    between atoms: _169  and  _170
REMARK   65  A    between atoms: _172  and  _174
REMARK   66  A    between atoms: _174  and  _175
REMARK   67  A    between atoms: _174  and  _177
REMARK   68  A    between atoms: _177  and  _178
REMARK   69  A    between atoms: _181  and  _183
REMARK   70  A    between atoms: _183  and  _184
REMARK   71  A    between atoms: _183  and  _186
REMARK   72  A    between atoms: _188  and  _190
REMARK   73  A    between atoms: _190  and  _191
REMARK   74  A    between atoms: _190  and  _193
REMARK   75  A    between atoms: _193  and  _194
REMARK   76  A    between atoms: _197  and  _199
REMARK   77  A    between atoms: _199  and  _200
REMARK   78  A    between atoms: _202  and  _204
REMARK   79  A    between atoms: _204  and  _205
REMARK   80  A    between atoms: _208  and  _209
REMARK   81  A    between atoms: _214  and  _216
REMARK   82  A    between atoms: _216  and  _217
REMARK   83  A    between atoms: _216  and  _219
REMARK   84  A    between atoms: _219  and  _220
REMARK   85  A    between atoms: _225  and  _227
REMARK   86  A    between atoms: _227  and  _228
REMARK   87  A    between atoms: _227  and  _230
REMARK   88  A    between atoms: _230  and  _231
REMARK   89  A    between atoms: _237  and  _239
REMARK   90  A    between atoms: _239  and  _240
REMARK   91  A    between atoms: _239  and  _242
REMARK   92  A    between atoms: _242  and  _243
REMARK   93  A    between atoms: _243  and  _244
REMARK   94  A    between atoms: _247  and  _249
REMARK   95  A    between atoms: _249  and  _250
REMARK   96  A    between atoms: _249  and  _252
REMARK   97  A    between atoms: _255  and  _257
REMARK   98  A    between atoms: _257  and  _258
REMARK   99  A    between atoms: _261  and  _263
REMARK  100  A    between atoms: _263  and  _264
REMARK  101  A    between atoms: _263  and  _266
REMARK  102  A    between atoms: _266  and  _267
REMARK  103  A    between atoms: _270  and  _272
REMARK  104  A    between atoms: _272  and  _273
REMARK  105  A    between atoms: _275  and  _277
REMARK  106  A    between atoms: _277  and  _278
REMARK  107  A    between atoms: _277  and  _280
REMARK  108  A    between atoms: _280  and  _281
REMARK  109  A    between atoms: _281  and  _282
REMARK  110  A    between atoms: _284  and  _286
REMARK  111  A    between atoms: _286  and  _287
REMARK  112  A    between atoms: _286  and  _289
REMARK  113  A    between atoms: _289  and  _290
REMARK  114  A    between atoms: _292  and  _294
REMARK  115  A    between atoms: _294  and  _295
REMARK  116  A    between atoms: _294  and  _297
REMARK  117  A    between atoms: _297  and  _298
REMARK  118  A    between atoms: _301  and  _303
REMARK  119  A    between atoms: _303  and  _304
REMARK  120  A    between atoms: _303  and  _306
REMARK  121  A    between atoms: _306  and  _307
REMARK  122  A    between atoms: _309  and  _311
REMARK  123  A    between atoms: _311  and  _312
REMARK  124  A    between atoms: _311  and  _314
REMARK  125  A    between atoms: _314  and  _315
REMARK  126  A    between atoms: _318  and  _320
REMARK  127  A    between atoms: _320  and  _321
REMARK  128  A    between atoms: _320  and  _323
REMARK  129  A    between atoms: _323  and  _324
REMARK  130  A    between atoms: _327  and  _329
REMARK  131  A    between atoms: _329  and  _330
REMARK  132  A    between atoms: _329  and  _332
REMARK  133  A    between atoms: _332  and  _333
REMARK  134  A    between atoms: _336  and  _338
REMARK  135  A    between atoms: _338  and  _339
REMARK  136  A    between atoms: _338  and  _341
REMARK  137  A    between atoms: _341  and  _342
REMARK  138  A    between atoms: _347  and  _349
REMARK  139  A    between atoms: _349  and  _350
REMARK  140  A    between atoms: _349  and  _352
REMARK  141  A    between atoms: _352  and  _353
REMARK  142  A    between atoms: _353  and  _354
REMARK  143  A    between atoms: _356  and  _358
REMARK  144  A    between atoms: _358  and  _359
REMARK  145  A    between atoms: _358  and  _361
REMARK  146  A    between atoms: _363  and  _365
REMARK  147  A    between atoms: _365  and  _366
REMARK  148  A    between atoms: _365  and  _368
REMARK  149  A    between atoms: _368  and  _369
REMARK  150  A    between atoms: _372  and  _374
REMARK  151  A    between atoms: _374  and  _375
REMARK  152  A    between atoms: _374  and  _377
REMARK  153  A    between atoms: _377  and  _378
REMARK  154  A    between atoms: _378  and  _379
REMARK  155  A    between atoms: _382  and  _384
REMARK  156  A    between atoms: _384  and  _385
REMARK  157  A    between atoms: _384  and  _387
REMARK  158  A    between atoms: _387  and  _388
REMARK  159  A    between atoms: _393  and  _395
REMARK  160  A    between atoms: _395  and  _396
REMARK  161  A    between atoms: _395  and  _398
REMARK  162  A    between atoms: _400  and  _402
REMARK  163  A    between atoms: _402  and  _403
REMARK  164  A    between atoms: _402  and  _405
REMARK  165  A    between atoms: _405  and  _406
REMARK  166  A    between atoms: _411  and  _413
REMARK  167  A    between atoms: _413  and  _414
REMARK  168  A    between atoms: _413  and  _416
REMARK  169  A    between atoms: _416  and  _417
REMARK  170  A    between atoms: _420  and  _422
REMARK  171  A    between atoms: _422  and  _423
REMARK  172  A    between atoms: _422  and  _425
REMARK  173  A    between atoms: _425  and  _426
REMARK  174  A    between atoms: _428  and  _430
REMARK  175  A    between atoms: _430  and  _431
REMARK  176  A    between atoms: _430  and  _433
REMARK  177  A    between atoms: _433  and  _434
REMARK  178  A    between atoms: _437  and  _439
REMARK  179  A    between atoms: _439  and  _440
REMARK  180  A    between atoms: _439  and  _442
REMARK  181  A    between atoms: _445  and  _447
REMARK  182  A    between atoms: _447  and  _448
REMARK  183  A    between atoms: _447  and  _450
REMARK  184  A    between atoms: _450  and  _451
REMARK  185  A    between atoms: _451  and  _452
REMARK  186  A    between atoms: _452  and  _453
REMARK  187  A    between atoms: _462  and  _464
REMARK  188  A    between atoms: _464  and  _465
REMARK  189  A    between atoms: _464  and  _467
REMARK  190  A    between atoms: _467  and  _468
REMARK  191  A    between atoms: _474  and  _476
REMARK  192  A    between atoms: _476  and  _477
REMARK  193  A    between atoms: _476  and  _479
REMARK  194  A    between atoms: _479  and  _480
REMARK                            x       y       z     vdW  Elec       q    Type
REMARK                         _______ _______ _______ _____ _____    ______ ____
ROOT
ATOM      1  CA  SER A   2      36.017   9.751 104.389  0.00  0.00    +0.178 C 
ENDROOT
BRANCH   1   4
ATOM      2  C   GLY A   1      33.673  10.145 103.828  0.00  0.00    +0.240 C 
ATOM      3  O   GLY A   1      33.810  11.387 103.975  0.00  0.00    -0.274 OA
ATOM      4  N   SER A   2      34.688   9.286 103.941  0.00  0.00    -0.295 N 
ATOM      5  H   SER A   2      34.543   8.282 103.712  0.00  0.00    +0.150 HD
BRANCH   2   6
ATOM      6  CA  GLY A   1      32.335   9.566 103.473  0.00  0.00    +0.169 C 
BRANCH   6   7
ATOM      7  N   GLY A   1      31.450  10.550 102.873  0.00  0.00    -0.236 NA
ATOM      8  H   GLY A   1      31.505  10.715 101.848  0.00  0.00    +0.142 HD
ENDBRANCH   6   7
ENDBRANCH   2   6
ENDBRANCH   1   4
BRANCH   1   9
ATOM      9  C   SER A   2      36.677  10.688 103.382  0.00  0.00    +0.243 C 
ATOM     10  N   GLY A   3      36.916  11.940 103.794  0.00  0.00    -0.296 N 
ATOM     11  H   GLY A   3      36.706  12.197 104.780  0.00  0.00    +0.150 HD
ATOM     12  O   SER A   2      36.958  10.280 102.239  0.00  0.00    -0.273 OA
BRANCH  10  13
ATOM     13  CA  GLY A   3      37.469  12.964 102.889  0.00  0.00    +0.163 C 
BRANCH  13  14
ATOM     14  C   GLY A   3      36.472  13.764 102.074  0.00  0.00    +0.229 C 
ATOM     15  O   GLY A   3      36.866  14.653 101.325  0.00  0.00    -0.286 OA
ENDBRANCH  13  14
ENDBRANCH  10  13
ENDBRANCH   1   9
BRANCH   1  16
ATOM     16  CB  SER A   2      36.935   8.575 104.740  0.00  0.00    +0.166 C 
BRANCH  16  17
ATOM     17  OG  SER A   2      36.457   7.905 105.898  0.00  0.00    -0.380 OA
ATOM     18  H   SER A   2      37.059   7.149 106.112  0.00  0.00    +0.211 HD
ENDBRANCH  16  17
ENDBRANCH   1  16
TORSDOF 8
REMARK  Name = ../refined-set-2016/2p4s/2p4s_pocket.pdb
REMARK  194 active torsions:
REMARK  status: ('A' for Active; 'I' for Inactive)
REMARK    1  A    between atoms: _1  and  _3
REMARK    2  A    between atoms: _3  and  _4
REMARK    3  A    between atoms: _6  and  _8
REMARK    4  A    between atoms: _8  and  _9
REMARK    5  A    between atoms: _8  and  _11
REMARK    6  A    between atoms: _11  and  _12
REMARK    7  A    between atoms: _14  and  _16
REMARK    8  A    between atoms: _16  and  _17
REMARK    9  A    between atoms: _19  and  _21
REMARK   10  A    between atoms: _21  and  _22
REMARK   11  A    between atoms: _21  and  _24
REMARK   12  A    between atoms: _27  and  _29
REMARK   13  A    between atoms: _29  and  _30
REMARK   14  A    between atoms: _33  and  _35
REMARK   15  A    between atoms: _35  and  _36
REMARK   16  A    between atoms: _35  and  _38
REMARK   17  A    between atoms: _38  and  _39
REMARK   18  A    between atoms: _44  and  _46
REMARK   19  A    between atoms: _46  and  _47
REMARK   20  A    between atoms: _46  and  _49
REMARK   21  A    between atoms: _49  and  _50
REMARK   22  A    between atoms: _50  and  _51
REMARK   23  A    between atoms: _51  and  _52
REMARK   24  A    between atoms: _61  and  _63
REMARK   25  A    between atoms: _63  and  _64
REMARK   26  A    between atoms: _63  and  _66
REMARK   27  A    between atoms: _66  and  _67
REMARK   28  A    between atoms: _73  and  _75
REMARK   29  A    between atoms: _75  and  _76
REMARK   30  A    between atoms: _75  and  _78
REMARK   31  A    between atoms: _78  and  _79
REMARK   32  A    between atoms: _84  and  _86
REMARK   33  A    between atoms: _86  and  _87
REMARK   34  A    between atoms: _86  and  _89
REMARK   35  A    between atoms: _89  and  _90
REMARK   36  A    between atoms: _95  and  _97
REMARK   37  A    between atoms: _97  and  _98
REMARK   38  A    between atoms: _97  and  _100
REMARK   39  A    between atoms: _100  and  _101
REMARK   40  A    between atoms: _106  and  _107
REMARK   41  A    between atoms: _109  and  _111
REMARK   42  A    between atoms: _111  and  _112
REMARK   43  A    between atoms: _111  and  _114
REMARK   44  A    between atoms: _114  and  _115
REMARK   45  A    between atoms: _115  and  _116
REMARK   46  A    between atoms: _119  and  _121
REMARK   47  A    between atoms: _121  and  _122
REMARK   48  A    between atoms: _121  and  _124
REMARK   49  A    between atoms: _124  and  _125
REMARK   50  A    between atoms: _130  and  _132
REMARK   51  A    between atoms: _132  and  _133
REMARK   52  A    between atoms: _136  and  _138
REMARK   53  A    between atoms: _138  and  _139
REMARK   54  A    between atoms: _142  and  _144
REMARK   55  A    between atoms: _144  and  _145
REMARK   56  A    between atoms: _147  and  _149
REMARK   57  A    between atoms: _149  and  _150
REMARK   58  A    between atoms: _152  and  _154
REMARK   59  A    between atoms: _154  and  _155
REMARK   60  A    between atoms: _158  and  _160
REMARK   61  A    between atoms: _160  and  _161
REMARK   62  A    between atoms: _160  and  _163
REMARK   63  A    between atoms: _163  and  _164
REMARK   64  A    between atoms: _169  and  _170
REMARK   65  A    between atoms: _172  and  _174
REMARK   66  A    between atoms: _174  and  _175
REMARK   67  A    between atoms: _174  and  _177
REMARK   68  A    between atoms: _177  and  _178
REMARK   69  A    between atoms: _181  and  _183
REMARK   70  A    between atoms: _183  and  _184
REMARK   71  A    between atoms: _183  and  _186
REMARK   72  A    between atoms: _188  and  _190
REMARK   73  A    between atoms: _190  and  _191
REMARK   74  A    between atoms: _190  and  _193
REMARK   75  A    between atoms: _193  and  _194
REMARK   76  A    between atoms: _197  and  _199
REMARK   77  A    between atoms: _199  and  _200
REMARK   78  A    between atoms: _202  and  _204
REMARK   79  A    between atoms: _204  and  _205
REMARK   80  A    between atoms: _208  and  _209
REMARK   81  A    between atoms: _214  and  _216
REMARK   82  A    between atoms: _216  and  _217
REMARK   83  A    between atoms: _216  and  _219
REMARK   84  A    between atoms: _219  and  _220
REMARK   85  A    between atoms: _225  and  _227
REMARK   86  A    between atoms: _227  and  _228
REMARK   87  A    between atoms: _227  and  _230
REMARK   88  A    between atoms: _230  and  _231
REMARK   89  A    between atoms: _237  and  _239
REMARK   90  A    between atoms: _239  and  _240
REMARK   91  A    between atoms: _239  and  _242
REMARK   92  A    between atoms: _242  and  _243
REMARK   93  A    between atoms: _243  and  _244
REMARK   94  A    between atoms: _247  and  _249
REMARK   95  A    between atoms: _249  and  _250
REMARK   96  A    between atoms: _249  and  _252
REMARK   97  A    between atoms: _255  and  _257
REMARK   98  A    between atoms: _257  and  _258
REMARK   99  A    between atoms: _261  and  _263
REMARK  100  A    between atoms: _263  and  _264
REMARK  101  A    between atoms: _263  and  _266
REMARK  102  A    between atoms: _266  and  _267
REMARK  103  A    between atoms: _270  and  _272
REMARK  104  A    between atoms: _272  and  _273
REMARK  105  A    between atoms: _275  and  _277
REMARK  106  A    between atoms: _277  and  _278
REMARK  107  A    between atoms: _277  and  _280
REMARK  108  A    between atoms: _280  and  _281
REMARK  109  A    between atoms: _281  and  _282
REMARK  110  A    between atoms: _284  and  _286
REMARK  111  A    between atoms: _286  and  _287
REMARK  112  A    between atoms: _286  and  _289
REMARK  113  A    between atoms: _289  and  _290
REMARK  114  A    between atoms: _292  and  _294
REMARK  115  A    between atoms: _294  and  _295
REMARK  116  A    between atoms: _294  and  _297
REMARK  117  A    between atoms: _297  and  _298
REMARK  118  A    between atoms: _301  and  _303
REMARK  119  A    between atoms: _303  and  _304
REMARK  120  A    between atoms: _303  and  _306
REMARK  121  A    between atoms: _306  and  _307
REMARK  122  A    between atoms: _309  and  _311
REMARK  123  A    between atoms: _311  and  _312
REMARK  124  A    between atoms: _311  and  _314
REMARK  125  A    between atoms: _314  and  _315
REMARK  126  A    between atoms: _318  and  _320
REMARK  127  A    between atoms: _320  and  _321
REMARK  128  A    between atoms: _320  and  _323
REMARK  129  A    between atoms: _323  and  _324
REMARK  130  A    between atoms: _327  and  _329
REMARK  131  A    between atoms: _329  and  _330
REMARK  132  A    between atoms: _329  and  _332
REMARK  133  A    between atoms: _332  and  _333
REMARK  134  A    between atoms: _336  and  _338
REMARK  135  A    between atoms: _338  and  _339
REMARK  136  A    between atoms: _338  and  _341
REMARK  137  A    between atoms: _341  and  _342
REMARK  138  A    between atoms: _347  and  _349
REMARK  139  A    between atoms: _349  and  _350
REMARK  140  A    between atoms: _349  and  _352
REMARK  141  A    between atoms: _352  and  _353
REMARK  142  A    between atoms: _353  and  _354
REMARK  143  A    between atoms: _356  and  _358
REMARK  144  A    between atoms: _358  and  _359
REMARK  145  A    between atoms: _358  and  _361
REMARK  146  A    between atoms: _363  and  _365
REMARK  147  A    between atoms: _365  and  _366
REMARK  148  A    between atoms: _365  and  _368
REMARK  149  A    between atoms: _368  and  _369
REMARK  150  A    between atoms: _372  and  _374
REMARK  151  A    between atoms: _374  and  _375
REMARK  152  A    between atoms: _374  and  _377
REMARK  153  A    between atoms: _377  and  _378
REMARK  154  A    between atoms: _378  and  _379
REMARK  155  A    between atoms: _382  and  _384
REMARK  156  A    between atoms: _384  and  _385
REMARK  157  A    between atoms: _384  and  _387
REMARK  158  A    between atoms: _387  and  _388
REMARK  159  A    between atoms: _393  and  _395
REMARK  160  A    between atoms: _395  and  _396
REMARK  161  A    between atoms: _395  and  _398
REMARK  162  A    between atoms: _400  and  _402
REMARK  163  A    between atoms: _402  and  _403
REMARK  164  A    between atoms: _402  and  _405
REMARK  165  A    between atoms: _405  and  _406
REMARK  166  A    between atoms: _411  and  _413
REMARK  167  A    between atoms: _413  and  _414
REMARK  168  A    between atoms: _413  and  _416
REMARK  169  A    between atoms: _416  and  _417
REMARK  170  A    between atoms: _420  and  _422
REMARK  171  A    between atoms: _422  and  _423
REMARK  172  A    between atoms: _422  and  _425
REMARK  173  A    between atoms: _425  and  _426
REMARK  174  A    between atoms: _428  and  _430
REMARK  175  A    between atoms: _430  and  _431
REMARK  176  A    between atoms: _430  and  _433
REMARK  177  A    between atoms: _433  and  _434
REMARK  178  A    between atoms: _437  and  _439
REMARK  179  A    between atoms: _439  and  _440
REMARK  180  A    between atoms: _439  and  _442
REMARK  181  A    between atoms: _445  and  _447
REMARK  182  A    between atoms: _447  and  _448
REMARK  183  A    between atoms: _447  and  _450
REMARK  184  A    between atoms: _450  and  _451
REMARK  185  A    between atoms: _451  and  _452
REMARK  186  A    between atoms: _452  and  _453
REMARK  187  A    between atoms: _462  and  _464
REMARK  188  A    between atoms: _464  and  _465
REMARK  189  A    between atoms: _464  and  _467
REMARK  190  A    between atoms: _467  and  _468
REMARK  191  A    between atoms: _474  and  _476
REMARK  192  A    between atoms: _476  and  _477
REMARK  193  A    between atoms: _476  and  _479
REMARK  194  A    between atoms: _479  and  _480
REMARK                            x       y       z     vdW  Elec       q    Type
REMARK                         _______ _______ _______ _____ _____    ______ ____
ROOT
ATOM      1  C   VAL A   1      36.525   9.668 112.626  0.00  0.00    +0.238 C 
ATOM      2  N   ALA A   2      37.849   9.814 112.757  0.00  0.00    -0.298 N 
ATOM      3  H   ALA A   2      38.427   9.023 113.107  0.00  0.00    +0.150 HD
ATOM      4  O   VAL A   1      35.799  10.593 112.284  0.00  0.00    -0.274 OA
ENDROOT
BRANCH   2   5
ATOM      5  CA  ALA A   2      38.487  11.091 112.407  0.00  0.00    +0.137 C 
ATOM      6  CB  ALA A   2      40.032  10.974 112.440  0.00  0.00    +0.030 C 
BRANCH   5   7
ATOM      7  C   ALA A   2      38.011  11.583 111.028  0.00  0.00    +0.227 C 
ATOM      8  O   ALA A   2      37.946  10.792 110.086  0.00  0.00    -0.286 OA
ENDBRANCH   5   7
ENDBRANCH   2   5
BRANCH   1   9
ATOM      9  CA  VAL A   1      35.926   8.291 112.936  0.00  0.00    +0.145 C 
BRANCH   9  10
ATOM     10  CB  VAL A   1      35.551   7.420 111.662  0.00  0.00    +0.025 C 
ATOM     11  CG2 VAL A   1      35.206   6.034 112.135  0.00  0.00    +0.002 C 
ATOM     12  CG1 VAL A   1      36.700   7.329 110.665  0.00  0.00    +0.002 C 
ENDBRANCH   9  10
BRANCH   9  13
ATOM     13  N   VAL A   1      34.792   8.361 113.875  0.00  0.00    -0.238 NA
ATOM     14  H   VAL A   1      33.831   8.434 113.485  0.00  0.00    +0.142 HD
ENDBRANCH   9  13
ENDBRANCH   1   9
TORSDOF 5
REMARK  Name = ../refined-set-2016/2p4s/2p4s_pocket.pdb
REMARK  194 active torsions:
REMARK  status: ('A' for Active; 'I' for Inactive)
REMARK    1  A    between atoms: _1  and  _3
REMARK    2  A    between atoms: _3  and  _4
REMARK    3  A    between atoms: _6  and  _8
REMARK    4  A    between atoms: _8  and  _9
REMARK    5  A    between atoms: _8  and  _11
REMARK    6  A    between atoms: _11  and  _12
REMARK    7  A    between atoms: _14  and  _16
REMARK    8  A    between atoms: _16  and  _17
REMARK    9  A    between atoms: _19  and  _21
REMARK   10  A    between atoms: _21  and  _22
REMARK   11  A    between atoms: _21  and  _24
REMARK   12  A    between atoms: _27  and  _29
REMARK   13  A    between atoms: _29  and  _30
REMARK   14  A    between atoms: _33  and  _35
REMARK   15  A    between atoms: _35  and  _36
REMARK   16  A    between atoms: _35  and  _38
REMARK   17  A    between atoms: _38  and  _39
REMARK   18  A    between atoms: _44  and  _46
REMARK   19  A    between atoms: _46  and  _47
REMARK   20  A    between atoms: _46  and  _49
REMARK   21  A    between atoms: _49  and  _50
REMARK   22  A    between atoms: _50  and  _51
REMARK   23  A    between atoms: _51  and  _52
REMARK   24  A    between atoms: _61  and  _63
REMARK   25  A    between atoms: _63  and  _64
REMARK   26  A    between atoms: _63  and  _66
REMARK   27  A    between atoms: _66  and  _67
REMARK   28  A    between atoms: _73  and  _75
REMARK   29  A    between atoms: _75  and  _76
REMARK   30  A    between atoms: _75  and  _78
REMARK   31  A    between atoms: _78  and  _79
REMARK   32  A    between atoms: _84  and  _86
REMARK   33  A    between atoms: _86  and  _87
REMARK   34  A    between atoms: _86  and  _89
REMARK   35  A    between atoms: _89  and  _90
REMARK   36  A    between atoms: _95  and  _97
REMARK   37  A    between atoms: _97  and  _98
REMARK   38  A    between atoms: _97  and  _100
REMARK   39  A    between atoms: _100  and  _101
REMARK   40  A    between atoms: _106  and  _107
REMARK   41  A    between atoms: _109  and  _111
REMARK   42  A    between atoms: _111  and  _112
REMARK   43  A    between atoms: _111  and  _114
REMARK   44  A    between atoms: _114  and  _115
REMARK   45  A    between atoms: _115  and  _116
REMARK   46  A    between atoms: _119  and  _121
REMARK   47  A    between atoms: _121  and  _122
REMARK   48  A    between atoms: _121  and  _124
REMARK   49  A    between atoms: _124  and  _125
REMARK   50  A    between atoms: _130  and  _132
REMARK   51  A    between atoms: _132  and  _133
REMARK   52  A    between atoms: _136  and  _138
REMARK   53  A    between atoms: _138  and  _139
REMARK   54  A    between atoms: _142  and  _144
REMARK   55  A    between atoms: _144  and  _145
REMARK   56  A    between atoms: _147  and  _149
REMARK   57  A    between atoms: _149  and  _150
REMARK   58  A    between atoms: _152  and  _154
REMARK   59  A    between atoms: _154  and  _155
REMARK   60  A    between atoms: _158  and  _160
REMARK   61  A    between atoms: _160  and  _161
REMARK   62  A    between atoms: _160  and  _163
REMARK   63  A    between atoms: _163  and  _164
REMARK   64  A    between atoms: _169  and  _170
REMARK   65  A    between atoms: _172  and  _174
REMARK   66  A    between atoms: _174  and  _175
REMARK   67  A    between atoms: _174  and  _177
REMARK   68  A    between atoms: _177  and  _178
REMARK   69  A    between atoms: _181  and  _183
REMARK   70  A    between atoms: _183  and  _184
REMARK   71  A    between atoms: _183  and  _186
REMARK   72  A    between atoms: _188  and  _190
REMARK   73  A    between atoms: _190  and  _191
REMARK   74  A    between atoms: _190  and  _193
REMARK   75  A    between atoms: _193  and  _194
REMARK   76  A    between atoms: _197  and  _199
REMARK   77  A    between atoms: _199  and  _200
REMARK   78  A    between atoms: _202  and  _204
REMARK   79  A    between atoms: _204  and  _205
REMARK   80  A    between atoms: _208  and  _209
REMARK   81  A    between atoms: _214  and  _216
REMARK   82  A    between atoms: _216  and  _217
REMARK   83  A    between atoms: _216  and  _219
REMARK   84  A    between atoms: _219  and  _220
REMARK   85  A    between atoms: _225  and  _227
REMARK   86  A    between atoms: _227  and  _228
REMARK   87  A    between atoms: _227  and  _230
REMARK   88  A    between atoms: _230  and  _231
REMARK   89  A    between atoms: _237  and  _239
REMARK   90  A    between atoms: _239  and  _240
REMARK   91  A    between atoms: _239  and  _242
REMARK   92  A    between atoms: _242  and  _243
REMARK   93  A    between atoms: _243  and  _244
REMARK   94  A    between atoms: _247  and  _249
REMARK   95  A    between atoms: _249  and  _250
REMARK   96  A    between atoms: _249  and  _252
REMARK   97  A    between atoms: _255  and  _257
REMARK   98  A    between atoms: _257  and  _258
REMARK   99  A    between atoms: _261  and  _263
REMARK  100  A    between atoms: _263  and  _264
REMARK  101  A    between atoms: _263  and  _266
REMARK  102  A    between atoms: _266  and  _267
REMARK  103  A    between atoms: _270  and  _272
REMARK  104  A    between atoms: _272  and  _273
REMARK  105  A    between atoms: _275  and  _277
REMARK  106  A    between atoms: _277  and  _278
REMARK  107  A    between atoms: _277  and  _280
REMARK  108  A    between atoms: _280  and  _281
REMARK  109  A    between atoms: _281  and  _282
REMARK  110  A    between atoms: _284  and  _286
REMARK  111  A    between atoms: _286  and  _287
REMARK  112  A    between atoms: _286  and  _289
REMARK  113  A    between atoms: _289  and  _290
REMARK  114  A    between atoms: _292  and  _294
REMARK  115  A    between atoms: _294  and  _295
REMARK  116  A    between atoms: _294  and  _297
REMARK  117  A    between atoms: _297  and  _298
REMARK  118  A    between atoms: _301  and  _303
REMARK  119  A    between atoms: _303  and  _304
REMARK  120  A    between atoms: _303  and  _306
REMARK  121  A    between atoms: _306  and  _307
REMARK  122  A    between atoms: _309  and  _311
REMARK  123  A    between atoms: _311  and  _312
REMARK  124  A    between atoms: _311  and  _314
REMARK  125  A    between atoms: _314  and  _315
REMARK  126  A    between atoms: _318  and  _320
REMARK  127  A    between atoms: _320  and  _321
REMARK  128  A    between atoms: _320  and  _323
REMARK  129  A    between atoms: _323  and  _324
REMARK  130  A    between atoms: _327  and  _329
REMARK  131  A    between atoms: _329  and  _330
REMARK  132  A    between atoms: _329  and  _332
REMARK  133  A    between atoms: _332  and  _333
REMARK  134  A    between atoms: _336  and  _338
REMARK  135  A    between atoms: _338  and  _339
REMARK  136  A    between atoms: _338  and  _341
REMARK  137  A    between atoms: _341  and  _342
REMARK  138  A    between atoms: _347  and  _349
REMARK  139  A    between atoms: _349  and  _350
REMARK  140  A    between atoms: _349  and  _352
REMARK  141  A    between atoms: _352  and  _353
REMARK  142  A    between atoms: _353  and  _354
REMARK  143  A    between atoms: _356  and  _358
REMARK  144  A    between atoms: _358  and  _359
REMARK  145  A    between atoms: _358  and  _361
REMARK  146  A    between atoms: _363  and  _365
REMARK  147  A    between atoms: _365  and  _366
REMARK  148  A    between atoms: _365  and  _368
REMARK  149  A    between atoms: _368  and  _369
REMARK  150  A    between atoms: _372  and  _374
REMARK  151  A    between atoms: _374  and  _375
REMARK  152  A    between atoms: _374  and  _377
REMARK  153  A    between atoms: _377  and  _378
REMARK  154  A    between atoms: _378  and  _379
REMARK  155  A    between atoms: _382  and  _384
REMARK  156  A    between atoms: _384  and  _385
REMARK  157  A    between atoms: _384  and  _387
REMARK  158  A    between atoms: _387  and  _388
REMARK  159  A    between atoms: _393  and  _395
REMARK  160  A    between atoms: _395  and  _396
REMARK  161  A    between atoms: _395  and  _398
REMARK  162  A    between atoms: _400  and  _402
REMARK  163  A    between atoms: _402  and  _403
REMARK  164  A    between atoms: _402  and  _405
REMARK  165  A    between atoms: _405  and  _406
REMARK  166  A    between atoms: _411  and  _413
REMARK  167  A    between atoms: _413  and  _414
REMARK  168  A    between atoms: _413  and  _416
REMARK  169  A    between atoms: _416  and  _417
REMARK  170  A    between atoms: _420  and  _422
REMARK  171  A    between atoms: _422  and  _423
REMARK  172  A    between atoms: _422  and  _425
REMARK  173  A    between atoms: _425  and  _426
REMARK  174  A    between atoms: _428  and  _430
REMARK  175  A    between atoms: _430  and  _431
REMARK  176  A    between atoms: _430  and  _433
REMARK  177  A    between atoms: _433  and  _434
REMARK  178  A    between atoms: _437  and  _439
REMARK  179  A    between atoms: _439  and  _440
REMARK  180  A    between atoms: _439  and  _442
REMARK  181  A    between atoms: _445  and  _447
REMARK  182  A    between atoms: _447  and  _448
REMARK  183  A    between atoms: _447  and  _450
REMARK  184  A    between atoms: _450  and  _451
REMARK  185  A    between atoms: _451  and  _452
REMARK  186  A    between atoms: _452  and  _453
REMARK  187  A    between atoms: _462  and  _464
REMARK  188  A    between atoms: _464  and  _465
REMARK  189  A    between atoms: _464  and  _467
REMARK  190  A    between atoms: _467  and  _468
REMARK  191  A    between atoms: _474  and  _476
REMARK  192  A    between atoms: _476  and  _477
REMARK  193  A    between atoms: _476  and  _479
REMARK  194  A    between atoms: _479  and  _480
REMARK                            x       y       z     vdW  Elec       q    Type
REMARK                         _______ _______ _______ _____ _____    ______ ____
ROOT
ATOM      1  CB  HIS A   1      33.057  11.020 110.286  0.00  0.00    +0.072 C 
ENDROOT
BRANCH   1   2
ATOM      2  CG  HIS A   1      33.356  10.111 109.124  0.00  0.00    +0.082 A 
ATOM      3  ND1 HIS A   1      34.641   9.767 108.752  0.00  0.00    -0.227 NA
ATOM      4  CE1 HIS A   1      34.606   9.030 107.660  0.00  0.00    +0.199 A 
ATOM      5  NE2 HIS A   1      33.345   8.856 107.329  0.00  0.00    -0.221 NA
ATOM      6  CD2 HIS A   1      32.543   9.532 108.220  0.00  0.00    +0.115 A 
ENDBRANCH   1   2
BRANCH   1   7
ATOM      7  CA  HIS A   1      33.599  12.434 110.099  0.00  0.00    +0.139 C 
BRANCH   7   8
ATOM      8  N   HIS A   1      35.073  12.445 110.150  0.00  0.00    -0.239 NA
ATOM      9  H   HIS A   1      35.567  11.857 110.852  0.00  0.00    +0.142 HD
ENDBRANCH   7   8
BRANCH   7  10
ATOM     10  C   HIS A   1      33.075  13.448 111.141  0.00  0.00    +0.224 C 
ATOM     11  O   HIS A   1      33.021  13.158 112.332  0.00  0.00    -0.287 OA
ENDBRANCH   7  10
ENDBRANCH   1   7
TORSDOF 4
REMARK  Name = ../refined-set-2016/2p4s/2p4s_pocket.pdb
REMARK  194 active torsions:
REMARK  status: ('A' for Active; 'I' for Inactive)
REMARK    1  A    between atoms: _1  and  _3
REMARK    2  A    between atoms: _3  and  _4
REMARK    3  A    between atoms: _6  and  _8
REMARK    4  A    between atoms: _8  and  _9
REMARK    5  A    between atoms: _8  and  _11
REMARK    6  A    between atoms: _11  and  _12
REMARK    7  A    between atoms: _14  and  _16
REMARK    8  A    between atoms: _16  and  _17
REMARK    9  A    between atoms: _19  and  _21
REMARK   10  A    between atoms: _21  and  _22
REMARK   11  A    between atoms: _21  and  _24
REMARK   12  A    between atoms: _27  and  _29
REMARK   13  A    between atoms: _29  and  _30
REMARK   14  A    between atoms: _33  and  _35
REMARK   15  A    between atoms: _35  and  _36
REMARK   16  A    between atoms: _35  and  _38
REMARK   17  A    between atoms: _38  and  _39
REMARK   18  A    between atoms: _44  and  _46
REMARK   19  A    between atoms: _46  and  _47
REMARK   20  A    between atoms: _46  and  _49
REMARK   21  A    between atoms: _49  and  _50
REMARK   22  A    between atoms: _50  and  _51
REMARK   23  A    between atoms: _51  and  _52
REMARK   24  A    between atoms: _61  and  _63
REMARK   25  A    between atoms: _63  and  _64
REMARK   26  A    between atoms: _63  and  _66
REMARK   27  A    between atoms: _66  and  _67
REMARK   28  A    between atoms: _73  and  _75
REMARK   29  A    between atoms: _75  and  _76
REMARK   30  A    between atoms: _75  and  _78
REMARK   31  A    between atoms: _78  and  _79
REMARK   32  A    between atoms: _84  and  _86
REMARK   33  A    between atoms: _86  and  _87
REMARK   34  A    between atoms: _86  and  _89
REMARK   35  A    between atoms: _89  and  _90
REMARK   36  A    between atoms: _95  and  _97
REMARK   37  A    between atoms: _97  and  _98
REMARK   38  A    between atoms: _97  and  _100
REMARK   39  A    between atoms: _100  and  _101
REMARK   40  A    between atoms: _106  and  _107
REMARK   41  A    between atoms: _109  and  _111
REMARK   42  A    between atoms: _111  and  _112
REMARK   43  A    between atoms: _111  and  _114
REMARK   44  A    between atoms: _114  and  _115
REMARK   45  A    between atoms: _115  and  _116
REMARK   46  A    between atoms: _119  and  _121
REMARK   47  A    between atoms: _121  and  _122
REMARK   48  A    between atoms: _121  and  _124
REMARK   49  A    between atoms: _124  and  _125
REMARK   50  A    between atoms: _130  and  _132
REMARK   51  A    between atoms: _132  and  _133
REMARK   52  A    between atoms: _136  and  _138
REMARK   53  A    between atoms: _138  and  _139
REMARK   54  A    between atoms: _142  and  _144
REMARK   55  A    between atoms: _144  and  _145
REMARK   56  A    between atoms: _147  and  _149
REMARK   57  A    between atoms: _149  and  _150
REMARK   58  A    between atoms: _152  and  _154
REMARK   59  A    between atoms: _154  and  _155
REMARK   60  A    between atoms: _158  and  _160
REMARK   61  A    between atoms: _160  and  _161
REMARK   62  A    between atoms: _160  and  _163
REMARK   63  A    between atoms: _163  and  _164
REMARK   64  A    between atoms: _169  and  _170
REMARK   65  A    between atoms: _172  and  _174
REMARK   66  A    between atoms: _174  and  _175
REMARK   67  A    between atoms: _174  and  _177
REMARK   68  A    between atoms: _177  and  _178
REMARK   69  A    between atoms: _181  and  _183
REMARK   70  A    between atoms: _183  and  _184
REMARK   71  A    between atoms: _183  and  _186
REMARK   72  A    between atoms: _188  and  _190
REMARK   73  A    between atoms: _190  and  _191
REMARK   74  A    between atoms: _190  and  _193
REMARK   75  A    between atoms: _193  and  _194
REMARK   76  A    between atoms: _197  and  _199
REMARK   77  A    between atoms: _199  and  _200
REMARK   78  A    between atoms: _202  and  _204
REMARK   79  A    between atoms: _204  and  _205
REMARK   80  A    between atoms: _208  and  _209
REMARK   81  A    between atoms: _214  and  _216
REMARK   82  A    between atoms: _216  and  _217
REMARK   83  A    between atoms: _216  and  _219
REMARK   84  A    between atoms: _219  and  _220
REMARK   85  A    between atoms: _225  and  _227
REMARK   86  A    between atoms: _227  and  _228
REMARK   87  A    between atoms: _227  and  _230
REMARK   88  A    between atoms: _230  and  _231
REMARK   89  A    between atoms: _237  and  _239
REMARK   90  A    between atoms: _239  and  _240
REMARK   91  A    between atoms: _239  and  _242
REMARK   92  A    between atoms: _242  and  _243
REMARK   93  A    between atoms: _243  and  _244
REMARK   94  A    between atoms: _247  and  _249
REMARK   95  A    between atoms: _249  and  _250
REMARK   96  A    between atoms: _249  and  _252
REMARK   97  A    between atoms: _255  and  _257
REMARK   98  A    between atoms: _257  and  _258
REMARK   99  A    between atoms: _261  and  _263
REMARK  100  A    between atoms: _263  and  _264
REMARK  101  A    between atoms: _263  and  _266
REMARK  102  A    between atoms: _266  and  _267
REMARK  103  A    between atoms: _270  and  _272
REMARK  104  A    between atoms: _272  and  _273
REMARK  105  A    between atoms: _275  and  _277
REMARK  106  A    between atoms: _277  and  _278
REMARK  107  A    between atoms: _277  and  _280
REMARK  108  A    between atoms: _280  and  _281
REMARK  109  A    between atoms: _281  and  _282
REMARK  110  A    between atoms: _284  and  _286
REMARK  111  A    between atoms: _286  and  _287
REMARK  112  A    between atoms: _286  and  _289
REMARK  113  A    between atoms: _289  and  _290
REMARK  114  A    between atoms: _292  and  _294
REMARK  115  A    between atoms: _294  and  _295
REMARK  116  A    between atoms: _294  and  _297
REMARK  117  A    between atoms: _297  and  _298
REMARK  118  A    between atoms: _301  and  _303
REMARK  119  A    between atoms: _303  and  _304
REMARK  120  A    between atoms: _303  and  _306
REMARK  121  A    between atoms: _306  and  _307
REMARK  122  A    between atoms: _309  and  _311
REMARK  123  A    between atoms: _311  and  _312
REMARK  124  A    between atoms: _311  and  _314
REMARK  125  A    between atoms: _314  and  _315
REMARK  126  A    between atoms: _318  and  _320
REMARK  127  A    between atoms: _320  and  _321
REMARK  128  A    between atoms: _320  and  _323
REMARK  129  A    between atoms: _323  and  _324
REMARK  130  A    between atoms: _327  and  _329
REMARK  131  A    between atoms: _329  and  _330
REMARK  132  A    between atoms: _329  and  _332
REMARK  133  A    between atoms: _332  and  _333
REMARK  134  A    between atoms: _336  and  _338
REMARK  135  A    between atoms: _338  and  _339
REMARK  136  A    between atoms: _338  and  _341
REMARK  137  A    between atoms: _341  and  _342
REMARK  138  A    between atoms: _347  and  _349
REMARK  139  A    between atoms: _349  and  _350
REMARK  140  A    between atoms: _349  and  _352
REMARK  141  A    between atoms: _352  and  _353
REMARK  142  A    between atoms: _353  and  _354
REMARK  143  A    between atoms: _356  and  _358
REMARK  144  A    between atoms: _358  and  _359
REMARK  145  A    between atoms: _358  and  _361
REMARK  146  A    between atoms: _363  and  _365
REMARK  147  A    between atoms: _365  and  _366
REMARK  148  A    between atoms: _365  and  _368
REMARK  149  A    between atoms: _368  and  _369
REMARK  150  A    between atoms: _372  and  _374
REMARK  151  A    between atoms: _374  and  _375
REMARK  152  A    between atoms: _374  and  _377
REMARK  153  A    between atoms: _377  and  _378
REMARK  154  A    between atoms: _378  and  _379
REMARK  155  A    between atoms: _382  and  _384
REMARK  156  A    between atoms: _384  and  _385
REMARK  157  A    between atoms: _384  and  _387
REMARK  158  A    between atoms: _387  and  _388
REMARK  159  A    between atoms: _393  and  _395
REMARK  160  A    between atoms: _395  and  _396
REMARK  161  A    between atoms: _395  and  _398
REMARK  162  A    between atoms: _400  and  _402
REMARK  163  A    between atoms: _402  and  _403
REMARK  164  A    between atoms: _402  and  _405
REMARK  165  A    between atoms: _405  and  _406
REMARK  166  A    between atoms: _411  and  _413
REMARK  167  A    between atoms: _413  and  _414
REMARK  168  A    between atoms: _413  and  _416
REMARK  169  A    between atoms: _416  and  _417
REMARK  170  A    between atoms: _420  and  _422
REMARK  171  A    between atoms: _422  and  _423
REMARK  172  A    between atoms: _422  and  _425
REMARK  173  A    between atoms: _425  and  _426
REMARK  174  A    between atoms: _428  and  _430
REMARK  175  A    between atoms: _430  and  _431
REMARK  176  A    between atoms: _430  and  _433
REMARK  177  A    between atoms: _433  and  _434
REMARK  178  A    between atoms: _437  and  _439
REMARK  179  A    between atoms: _439  and  _440
REMARK  180  A    between atoms: _439  and  _442
REMARK  181  A    between atoms: _445  and  _447
REMARK  182  A    between atoms: _447  and  _448
REMARK  183  A    between atoms: _447  and  _450
REMARK  184  A    between atoms: _450  and  _451
REMARK  185  A    between atoms: _451  and  _452
REMARK  186  A    between atoms: _452  and  _453
REMARK  187  A    between atoms: _462  and  _464
REMARK  188  A    between atoms: _464  and  _465
REMARK  189  A    between atoms: _464  and  _467
REMARK  190  A    between atoms: _467  and  _468
REMARK  191  A    between atoms: _474  and  _476
REMARK  192  A    between atoms: _476  and  _477
REMARK  193  A    between atoms: _476  and  _479
REMARK  194  A    between atoms: _479  and  _480
REMARK                            x       y       z     vdW  Elec       q    Type
REMARK                         _______ _______ _______ _____ _____    ______ ____
ROOT
ATOM      1  CA  HIS A   3      30.465   2.198 110.043  0.00  0.00    +0.155 C 
ENDROOT
BRANCH   1   3
ATOM      2  C   PHE A   2      28.942   4.095 110.001  0.00  0.00    +0.241 C 
ATOM      3  N   HIS A   3      29.862   3.382 110.642  0.00  0.00    -0.297 N 
ATOM      4  H   HIS A   3      30.159   3.676 111.594  0.00  0.00    +0.150 HD
ATOM      5  O   PHE A   2      28.422   3.744 108.927  0.00  0.00    -0.273 OA
BRANCH   2   6
ATOM      6  CA  PHE A   2      28.491   5.377 110.688  0.00  0.00    +0.153 C 
BRANCH   6   9
ATOM      7  C   ARG A   1      29.086   7.604 109.651  0.00  0.00    +0.238 C 
ATOM      8  O   ARG A   1      29.995   7.896 110.444  0.00  0.00    -0.274 OA
ATOM      9  N   PHE A   2      28.378   6.461 109.689  0.00  0.00    -0.297 N 
ATOM     10  H   PHE A   2      27.675   6.325 108.934  0.00  0.00    +0.150 HD
BRANCH   7  11
ATOM     11  CA  ARG A   1      28.678   8.590 108.537  0.00  0.00    +0.145 C 
BRANCH  11  12
ATOM     12  N   ARG A   1      29.590   9.733 108.458  0.00  0.00    -0.238 NA
ATOM     13  H   ARG A   1      30.617   9.570 108.472  0.00  0.00    +0.142 HD
ENDBRANCH  11  12
BRANCH  11  14
ATOM     14  CB  ARG A   1      28.554   7.877 107.167  0.00  0.00    +0.030 C 
BRANCH  14  15
ATOM     15  CG  ARG A   1      29.851   7.208 106.677  0.00  0.00    +0.045 C 
BRANCH  15  16
ATOM     16  CD  ARG A   1      29.648   5.840 105.996  0.00  0.00    +0.174 C 
BRANCH  16  17
ATOM     17  NE  ARG A   1      28.898   5.883 104.738  0.00  0.00    -0.265 N 
ATOM     18  HE  ARG A   1      27.952   5.451 104.722  0.00  0.00    +0.259 HD
ATOM     19  CZ  ARG A   1      29.347   6.438 103.614  0.00  0.00    +0.342 C 
ATOM     20  NH2 ARG A   1      30.570   6.977 103.563  0.00  0.00    -0.292 N 
ATOM     21 HH21 ARG A   1      31.179   6.965 104.406  0.00  0.00    +0.255 HD
ATOM     22 HH22 ARG A   1      30.912   7.408 102.680  0.00  0.00    +0.255 HD
ATOM     23  NH1 ARG A   1      28.573   6.434 102.527  0.00  0.00    -0.292 N 
ATOM     24 HH11 ARG A   1      27.629   6.000 102.563  0.00  0.00    +0.255 HD
ATOM     25 HH12 ARG A   1      28.914   6.865 101.644  0.00  0.00    +0.255 HD
ENDBRANCH  16  17
ENDBRANCH  15  16
ENDBRANCH  14  15
ENDBRANCH  11  14
ENDBRANCH   7  11
ENDBRANCH   6   9
BRANCH   6  26
ATOM     26  CB  PHE A   2      27.116   5.105 111.371  0.00  0.00    +0.055 C 
BRANCH  26  27
ATOM     27  CG  PHE A   2      26.408   6.364 111.782  0.00  0.00    -0.020 A 
ATOM     28  CD2 PHE A   2      27.084   7.341 112.543  0.00  0.00    -0.004 A 
ATOM     29  CE2 PHE A   2      26.440   8.529 112.898  0.00  0.00    -0.000 A 
ATOM     30  CZ  PHE A   2      25.131   8.772 112.488  0.00  0.00    -0.000 A 
ATOM     31  CE1 PHE A   2      24.470   7.844 111.732  0.00  0.00    -0.000 A 
ATOM     32  CD1 PHE A   2      25.107   6.631 111.354  0.00  0.00    -0.004 A 
ENDBRANCH  26  27
ENDBRANCH   6  26
ENDBRANCH   2   6
ENDBRANCH   1   3
BRANCH   1  33
ATOM     33  C   HIS A   3      30.290   1.040 110.975  0.00  0.00    +0.241 C 
ATOM     34  O   HIS A   3      30.286   1.213 112.195  0.00  0.00    -0.273 OA
ATOM     35  N   HIS A   4      30.181  -0.140 110.378  0.00  0.00    -0.297 N 
ATOM     36  H   HIS A   4      30.233  -0.173 109.340  0.00  0.00    +0.150 HD
BRANCH  35  37
ATOM     37  CA  HIS A   4      29.993  -1.386 111.096  0.00  0.00    +0.155 C 
BRANCH  37  38
ATOM     38  C   HIS A   4      31.133  -1.712 112.070  0.00  0.00    +0.241 C 
ATOM     39  O   HIS A   4      30.880  -2.237 113.152  0.00  0.00    -0.273 OA
ATOM     40  N   TYR A   5      32.372  -1.409 111.680  0.00  0.00    -0.297 N 
ATOM     41  H   TYR A   5      32.512  -1.036 110.719  0.00  0.00    +0.150 HD
BRANCH  40  42
ATOM     42  CA  TYR A   5      33.561  -1.579 112.554  0.00  0.00    +0.153 C 
BRANCH  42  43
ATOM     43  C   TYR A   5      33.545  -0.692 113.836  0.00  0.00    +0.241 C 
ATOM     44  O   TYR A   5      34.352  -0.904 114.776  0.00  0.00    -0.273 OA
ATOM     45  N   GLU A   6      32.640   0.295 113.868  0.00  0.00    -0.298 N 
ATOM     46  H   GLU A   6      32.086   0.507 113.014  0.00  0.00    +0.150 HD
BRANCH  45  47
ATOM     47  CA  GLU A   6      32.415   1.086 115.092  0.00  0.00    +0.137 C 
BRANCH  47  48
ATOM     48  C   GLU A   6      31.588   0.284 116.087  0.00  0.00    +0.227 C 
ATOM     49  O   GLU A   6      31.466   0.661 117.213  0.00  0.00    -0.286 OA
ENDBRANCH  47  48
BRANCH  47  50
ATOM     50  CB  GLU A   6      31.772   2.447 114.798  0.00  0.00    +0.039 C 
BRANCH  50  51
ATOM     51  CG  GLU A   6      32.669   3.413 113.982  0.00  0.00    +0.116 C 
BRANCH  51  52
ATOM     52  CD  GLU A   6      31.954   4.741 113.549  0.00  0.00    +0.365 C 
ATOM     53  OE2 GLU A   6      31.887   5.683 114.366  0.00  0.00    -0.246 OA
ATOM     54  OE1 GLU A   6      31.456   4.853 112.403  0.00  0.00    -0.246 OA
ENDBRANCH  51  52
ENDBRANCH  50  51
ENDBRANCH  47  50
ENDBRANCH  45  47
ENDBRANCH  42  43
BRANCH  42  55
ATOM     55  CB  TYR A   5      34.879  -1.381 111.774  0.00  0.00    +0.055 C 
BRANCH  55  56
ATOM     56  CG  TYR A   5      35.055   0.010 111.202  0.00  0.00    -0.020 A 
ATOM     57  CD2 TYR A   5      35.319   1.128 112.044  0.00  0.00    -0.001 A 
ATOM     58  CE2 TYR A   5      35.479   2.423 111.513  0.00  0.00    +0.036 A 
ATOM     59  CZ  TYR A   5      35.417   2.608 110.152  0.00  0.00    +0.134 A 
ATOM     60  CE1 TYR A   5      35.176   1.516 109.297  0.00  0.00    +0.036 A 
ATOM     61  CD1 TYR A   5      35.024   0.228 109.816  0.00  0.00    -0.001 A 
BRANCH  59  62
ATOM     62  OH  TYR A   5      35.562   3.895 109.618  0.00  0.00    -0.506 OA
ATOM     63  HH  TYR A   5      36.328   3.907 108.991  0.00  0.00    +0.292 HD
ENDBRANCH  59  62
ENDBRANCH  55  56
ENDBRANCH  42  55
ENDBRANCH  40  42
ENDBRANCH  37  38
BRANCH  37  64
ATOM     64  CB  HIS A   4      29.783  -2.509 110.072  0.00  0.00    +0.076 C 
BRANCH  64  65
ATOM     65  CG  HIS A   4      29.218  -3.771 110.644  0.00  0.00    +0.082 A 
ATOM     66  ND1 HIS A   4      28.104  -3.797 111.465  0.00  0.00    -0.227 NA
ATOM     67  CE1 HIS A   4      27.820  -5.048 111.783  0.00  0.00    +0.199 A 
ATOM     68  NE2 HIS A   4      28.691  -5.834 111.178  0.00  0.00    -0.221 NA
ATOM     69  CD2 HIS A   4      29.585  -5.062 110.473  0.00  0.00    +0.115 A 
ENDBRANCH  64  65
ENDBRANCH  37  64
ENDBRANCH  35  37
ENDBRANCH   1  33
BRANCH   1  70
ATOM     70  CB  HIS A   3      31.953   2.400 109.803  0.00  0.00    +0.076 C 
BRANCH  70  71
ATOM     71  CG  HIS A   3      32.308   3.732 109.205  0.00  0.00    +0.082 A 
ATOM     72  CD2 HIS A   3      32.498   4.951 109.774  0.00  0.00    +0.115 A 
ATOM     73  NE2 HIS A   3      32.869   5.816 108.766  0.00  0.00    -0.221 NA
ATOM     74  CE1 HIS A   3      32.908   5.153 107.618  0.00  0.00    +0.199 A 
ATOM     75  ND1 HIS A   3      32.590   3.892 107.862  0.00  0.00    -0.227 NA
ENDBRANCH  70  71
ENDBRANCH   1  70
TORSDOF 28
REMARK  Name = ../refined-set-2016/2p4s/2p4s_pocket.pdb
REMARK  194 active torsions:
REMARK  status: ('A' for Active; 'I' for Inactive)
REMARK    1  A    between atoms: _1  and  _3
REMARK    2  A    between atoms: _3  and  _4
REMARK    3  A    between atoms: _6  and  _8
REMARK    4  A    between atoms: _8  and  _9
REMARK    5  A    between atoms: _8  and  _11
REMARK    6  A    between atoms: _11  and  _12
REMARK    7  A    between atoms: _14  and  _16
REMARK    8  A    between atoms: _16  and  _17
REMARK    9  A    between atoms: _19  and  _21
REMARK   10  A    between atoms: _21  and  _22
REMARK   11  A    between atoms: _21  and  _24
REMARK   12  A    between atoms: _27  and  _29
REMARK   13  A    between atoms: _29  and  _30
REMARK   14  A    between atoms: _33  and  _35
REMARK   15  A    between atoms: _35  and  _36
REMARK   16  A    between atoms: _35  and  _38
REMARK   17  A    between atoms: _38  and  _39
REMARK   18  A    between atoms: _44  and  _46
REMARK   19  A    between atoms: _46  and  _47
REMARK   20  A    between atoms: _46  and  _49
REMARK   21  A    between atoms: _49  and  _50
REMARK   22  A    between atoms: _50  and  _51
REMARK   23  A    between atoms: _51  and  _52
REMARK   24  A    between atoms: _61  and  _63
REMARK   25  A    between atoms: _63  and  _64
REMARK   26  A    between atoms: _63  and  _66
REMARK   27  A    between atoms: _66  and  _67
REMARK   28  A    between atoms: _73  and  _75
REMARK   29  A    between atoms: _75  and  _76
REMARK   30  A    between atoms: _75  and  _78
REMARK   31  A    between atoms: _78  and  _79
REMARK   32  A    between atoms: _84  and  _86
REMARK   33  A    between atoms: _86  and  _87
REMARK   34  A    between atoms: _86  and  _89
REMARK   35  A    between atoms: _89  and  _90
REMARK   36  A    between atoms: _95  and  _97
REMARK   37  A    between atoms: _97  and  _98
REMARK   38  A    between atoms: _97  and  _100
REMARK   39  A    between atoms: _100  and  _101
REMARK   40  A    between atoms: _106  and  _107
REMARK   41  A    between atoms: _109  and  _111
REMARK   42  A    between atoms: _111  and  _112
REMARK   43  A    between atoms: _111  and  _114
REMARK   44  A    between atoms: _114  and  _115
REMARK   45  A    between atoms: _115  and  _116
REMARK   46  A    between atoms: _119  and  _121
REMARK   47  A    between atoms: _121  and  _122
REMARK   48  A    between atoms: _121  and  _124
REMARK   49  A    between atoms: _124  and  _125
REMARK   50  A    between atoms: _130  and  _132
REMARK   51  A    between atoms: _132  and  _133
REMARK   52  A    between atoms: _136  and  _138
REMARK   53  A    between atoms: _138  and  _139
REMARK   54  A    between atoms: _142  and  _144
REMARK   55  A    between atoms: _144  and  _145
REMARK   56  A    between atoms: _147  and  _149
REMARK   57  A    between atoms: _149  and  _150
REMARK   58  A    between atoms: _152  and  _154
REMARK   59  A    between atoms: _154  and  _155
REMARK   60  A    between atoms: _158  and  _160
REMARK   61  A    between atoms: _160  and  _161
REMARK   62  A    between atoms: _160  and  _163
REMARK   63  A    between atoms: _163  and  _164
REMARK   64  A    between atoms: _169  and  _170
REMARK   65  A    between atoms: _172  and  _174
REMARK   66  A    between atoms: _174  and  _175
REMARK   67  A    between atoms: _174  and  _177
REMARK   68  A    between atoms: _177  and  _178
REMARK   69  A    between atoms: _181  and  _183
REMARK   70  A    between atoms: _183  and  _184
REMARK   71  A    between atoms: _183  and  _186
REMARK   72  A    between atoms: _188  and  _190
REMARK   73  A    between atoms: _190  and  _191
REMARK   74  A    between atoms: _190  and  _193
REMARK   75  A    between atoms: _193  and  _194
REMARK   76  A    between atoms: _197  and  _199
REMARK   77  A    between atoms: _199  and  _200
REMARK   78  A    between atoms: _202  and  _204
REMARK   79  A    between atoms: _204  and  _205
REMARK   80  A    between atoms: _208  and  _209
REMARK   81  A    between atoms: _214  and  _216
REMARK   82  A    between atoms: _216  and  _217
REMARK   83  A    between atoms: _216  and  _219
REMARK   84  A    between atoms: _219  and  _220
REMARK   85  A    between atoms: _225  and  _227
REMARK   86  A    between atoms: _227  and  _228
REMARK   87  A    between atoms: _227  and  _230
REMARK   88  A    between atoms: _230  and  _231
REMARK   89  A    between atoms: _237  and  _239
REMARK   90  A    between atoms: _239  and  _240
REMARK   91  A    between atoms: _239  and  _242
REMARK   92  A    between atoms: _242  and  _243
REMARK   93  A    between atoms: _243  and  _244
REMARK   94  A    between atoms: _247  and  _249
REMARK   95  A    between atoms: _249  and  _250
REMARK   96  A    between atoms: _249  and  _252
REMARK   97  A    between atoms: _255  and  _257
REMARK   98  A    between atoms: _257  and  _258
REMARK   99  A    between atoms: _261  and  _263
REMARK  100  A    between atoms: _263  and  _264
REMARK  101  A    between atoms: _263  and  _266
REMARK  102  A    between atoms: _266  and  _267
REMARK  103  A    between atoms: _270  and  _272
REMARK  104  A    between atoms: _272  and  _273
REMARK  105  A    between atoms: _275  and  _277
REMARK  106  A    between atoms: _277  and  _278
REMARK  107  A    between atoms: _277  and  _280
REMARK  108  A    between atoms: _280  and  _281
REMARK  109  A    between atoms: _281  and  _282
REMARK  110  A    between atoms: _284  and  _286
REMARK  111  A    between atoms: _286  and  _287
REMARK  112  A    between atoms: _286  and  _289
REMARK  113  A    between atoms: _289  and  _290
REMARK  114  A    between atoms: _292  and  _294
REMARK  115  A    between atoms: _294  and  _295
REMARK  116  A    between atoms: _294  and  _297
REMARK  117  A    between atoms: _297  and  _298
REMARK  118  A    between atoms: _301  and  _303
REMARK  119  A    between atoms: _303  and  _304
REMARK  120  A    between atoms: _303  and  _306
REMARK  121  A    between atoms: _306  and  _307
REMARK  122  A    between atoms: _309  and  _311
REMARK  123  A    between atoms: _311  and  _312
REMARK  124  A    between atoms: _311  and  _314
REMARK  125  A    between atoms: _314  and  _315
REMARK  126  A    between atoms: _318  and  _320
REMARK  127  A    between atoms: _320  and  _321
REMARK  128  A    between atoms: _320  and  _323
REMARK  129  A    between atoms: _323  and  _324
REMARK  130  A    between atoms: _327  and  _329
REMARK  131  A    between atoms: _329  and  _330
REMARK  132  A    between atoms: _329  and  _332
REMARK  133  A    between atoms: _332  and  _333
REMARK  134  A    between atoms: _336  and  _338
REMARK  135  A    between atoms: _338  and  _339
REMARK  136  A    between atoms: _338  and  _341
REMARK  137  A    between atoms: _341  and  _342
REMARK  138  A    between atoms: _347  and  _349
REMARK  139  A    between atoms: _349  and  _350
REMARK  140  A    between atoms: _349  and  _352
REMARK  141  A    between atoms: _352  and  _353
REMARK  142  A    between atoms: _353  and  _354
REMARK  143  A    between atoms: _356  and  _358
REMARK  144  A    between atoms: _358  and  _359
REMARK  145  A    between atoms: _358  and  _361
REMARK  146  A    between atoms: _363  and  _365
REMARK  147  A    between atoms: _365  and  _366
REMARK  148  A    between atoms: _365  and  _368
REMARK  149  A    between atoms: _368  and  _369
REMARK  150  A    between atoms: _372  and  _374
REMARK  151  A    between atoms: _374  and  _375
REMARK  152  A    between atoms: _374  and  _377
REMARK  153  A    between atoms: _377  and  _378
REMARK  154  A    between atoms: _378  and  _379
REMARK  155  A    between atoms: _382  and  _384
REMARK  156  A    between atoms: _384  and  _385
REMARK  157  A    between atoms: _384  and  _387
REMARK  158  A    between atoms: _387  and  _388
REMARK  159  A    between atoms: _393  and  _395
REMARK  160  A    between atoms: _395  and  _396
REMARK  161  A    between atoms: _395  and  _398
REMARK  162  A    between atoms: _400  and  _402
REMARK  163  A    between atoms: _402  and  _403
REMARK  164  A    between atoms: _402  and  _405
REMARK  165  A    between atoms: _405  and  _406
REMARK  166  A    between atoms: _411  and  _413
REMARK  167  A    between atoms: _413  and  _414
REMARK  168  A    between atoms: _413  and  _416
REMARK  169  A    between atoms: _416  and  _417
REMARK  170  A    between atoms: _420  and  _422
REMARK  171  A    between atoms: _422  and  _423
REMARK  172  A    between atoms: _422  and  _425
REMARK  173  A    between atoms: _425  and  _426
REMARK  174  A    between atoms: _428  and  _430
REMARK  175  A    between atoms: _430  and  _431
REMARK  176  A    between atoms: _430  and  _433
REMARK  177  A    between atoms: _433  and  _434
REMARK  178  A    between atoms: _437  and  _439
REMARK  179  A    between atoms: _439  and  _440
REMARK  180  A    between atoms: _439  and  _442
REMARK  181  A    between atoms: _445  and  _447
REMARK  182  A    between atoms: _447  and  _448
REMARK  183  A    between atoms: _447  and  _450
REMARK  184  A    between atoms: _450  and  _451
REMARK  185  A    between atoms: _451  and  _452
REMARK  186  A    between atoms: _452  and  _453
REMARK  187  A    between atoms: _462  and  _464
REMARK  188  A    between atoms: _464  and  _465
REMARK  189  A    between atoms: _464  and  _467
REMARK  190  A    between atoms: _467  and  _468
REMARK  191  A    between atoms: _474  and  _476
REMARK  192  A    between atoms: _476  and  _477
REMARK  193  A    between atoms: _476  and  _479
REMARK  194  A    between atoms: _479  and  _480
REMARK                            x       y       z     vdW  Elec       q    Type
REMARK                         _______ _______ _______ _____ _____    ______ ____
ROOT
ATOM      1  CA  ALA A   3      37.955   3.283  98.616  0.00  0.00    +0.149 C 
ATOM      2  CB  ALA A   3      36.979   2.621  97.609  0.00  0.00    +0.031 C 
ENDROOT
BRANCH   1   5
ATOM      3  C   ALA A   2      36.721   5.088  99.737  0.00  0.00    +0.241 C 
ATOM      4  O   ALA A   2      36.032   4.262 100.341  0.00  0.00    -0.273 OA
ATOM      5  N   ALA A   3      37.642   4.717  98.844  0.00  0.00    -0.297 N 
ATOM      6  H   ALA A   3      38.148   5.444  98.299  0.00  0.00    +0.150 HD
BRANCH   3   7
ATOM      7  CA  ALA A   2      36.550   6.600 100.012  0.00  0.00    +0.149 C 
ATOM      8  CB  ALA A   2      37.558   7.062 101.099  0.00  0.00    +0.031 C 
BRANCH   7  10
ATOM      9  C   ASN A   1      34.209   7.170  99.567  0.00  0.00    +0.239 C 
ATOM     10  N   ALA A   2      35.191   6.897 100.434  0.00  0.00    -0.297 N 
ATOM     11  H   ALA A   2      34.973   6.897 101.451  0.00  0.00    +0.150 HD
ATOM     12  O   ASN A   1      34.391   7.567  98.396  0.00  0.00    -0.274 OA
BRANCH   9  13
ATOM     13  CA  ASN A   1      32.798   7.002 100.085  0.00  0.00    +0.154 C 
BRANCH  13  14
ATOM     14  N   ASN A   1      31.878   7.559  99.105  0.00  0.00    -0.238 NA
ATOM     15  H   ASN A   1      32.117   7.569  98.093  0.00  0.00    +0.142 HD
ENDBRANCH  13  14
BRANCH  13  16
ATOM     16  CB  ASN A   1      32.454   5.523 100.368  0.00  0.00    +0.111 C 
BRANCH  16  17
ATOM     17  CG  ASN A   1      32.507   4.672  99.127  0.00  0.00    +0.221 C 
ATOM     18  ND2 ASN A   1      31.404   4.046  98.806  0.00  0.00    -0.329 N 
ATOM     19 HD21 ASN A   1      30.558   4.145  99.402  0.00  0.00    +0.145 HD
ATOM     20 HD22 ASN A   1      31.374   3.449  97.955  0.00  0.00    +0.145 HD
ATOM     21  OD1 ASN A   1      33.537   4.586  98.452  0.00  0.00    -0.275 OA
ENDBRANCH  16  17
ENDBRANCH  13  16
ENDBRANCH   9  13
ENDBRANCH   7  10
ENDBRANCH   3   7
ENDBRANCH   1   5
BRANCH   1  22
ATOM     22  C   ALA A   3      39.394   3.055  98.171  0.00  0.00    +0.241 C 
ATOM     23  N   GLY A   4      39.836   1.816  98.381  0.00  0.00    -0.295 N 
ATOM     24  H   GLY A   4      39.247   1.154  98.926  0.00  0.00    +0.150 HD
ATOM     25  O   ALA A   3      40.084   3.987  97.670  0.00  0.00    -0.273 OA
BRANCH  23  26
ATOM     26  CA  GLY A   4      41.130   1.361  97.865  0.00  0.00    +0.176 C 
BRANCH  26  27
ATOM     27  C   GLY A   4      40.890   0.914  96.433  0.00  0.00    +0.243 C 
ATOM     28  O   GLY A   4      39.889   0.234  96.153  0.00  0.00    -0.273 OA
ATOM     29  N   GLY A   5      41.785   1.309  95.524  0.00  0.00    -0.295 N 
ATOM     30  H   GLY A   5      42.562   1.939  95.810  0.00  0.00    +0.150 HD
BRANCH  29  31
ATOM     31  CA  GLY A   5      41.688   0.863  94.114  0.00  0.00    +0.176 C 
BRANCH  31  32
ATOM     32  C   GLY A   5      42.259  -0.550  93.999  0.00  0.00    +0.243 C 
ATOM     33  O   GLY A   5      43.478  -0.738  94.161  0.00  0.00    -0.273 OA
ATOM     34  N   ALA A   6      41.386  -1.542  93.789  0.00  0.00    -0.298 N 
ATOM     35  H   ALA A   6      40.368  -1.331  93.784  0.00  0.00    +0.150 HD
BRANCH  34  36
ATOM     36  CA  ALA A   6      41.837  -2.931  93.564  0.00  0.00    +0.137 C 
ATOM     37  CB  ALA A   6      40.784  -3.964  94.061  0.00  0.00    +0.030 C 
BRANCH  36  38
ATOM     38  C   ALA A   6      42.144  -3.132  92.079  0.00  0.00    +0.227 C 
ATOM     39  O   ALA A   6      42.946  -3.966  91.713  0.00  0.00    -0.286 OA
ENDBRANCH  36  38
ENDBRANCH  34  36
ENDBRANCH  31  32
ENDBRANCH  29  31
ENDBRANCH  26  27
ENDBRANCH  23  26
ENDBRANCH   1  22
TORSDOF 14
REMARK  Name = ../refined-set-2016/2p4s/2p4s_pocket.pdb
REMARK  194 active torsions:
REMARK  status: ('A' for Active; 'I' for Inactive)
REMARK    1  A    between atoms: _1  and  _3
REMARK    2  A    between atoms: _3  and  _4
REMARK    3  A    between atoms: _6  and  _8
REMARK    4  A    between atoms: _8  and  _9
REMARK    5  A    between atoms: _8  and  _11
REMARK    6  A    between atoms: _11  and  _12
REMARK    7  A    between atoms: _14  and  _16
REMARK    8  A    between atoms: _16  and  _17
REMARK    9  A    between atoms: _19  and  _21
REMARK   10  A    between atoms: _21  and  _22
REMARK   11  A    between atoms: _21  and  _24
REMARK   12  A    between atoms: _27  and  _29
REMARK   13  A    between atoms: _29  and  _30
REMARK   14  A    between atoms: _33  and  _35
REMARK   15  A    between atoms: _35  and  _36
REMARK   16  A    between atoms: _35  and  _38
REMARK   17  A    between atoms: _38  and  _39
REMARK   18  A    between atoms: _44  and  _46
REMARK   19  A    between atoms: _46  and  _47
REMARK   20  A    between atoms: _46  and  _49
REMARK   21  A    between atoms: _49  and  _50
REMARK   22  A    between atoms: _50  and  _51
REMARK   23  A    between atoms: _51  and  _52
REMARK   24  A    between atoms: _61  and  _63
REMARK   25  A    between atoms: _63  and  _64
REMARK   26  A    between atoms: _63  and  _66
REMARK   27  A    between atoms: _66  and  _67
REMARK   28  A    between atoms: _73  and  _75
REMARK   29  A    between atoms: _75  and  _76
REMARK   30  A    between atoms: _75  and  _78
REMARK   31  A    between atoms: _78  and  _79
REMARK   32  A    between atoms: _84  and  _86
REMARK   33  A    between atoms: _86  and  _87
REMARK   34  A    between atoms: _86  and  _89
REMARK   35  A    between atoms: _89  and  _90
REMARK   36  A    between atoms: _95  and  _97
REMARK   37  A    between atoms: _97  and  _98
REMARK   38  A    between atoms: _97  and  _100
REMARK   39  A    between atoms: _100  and  _101
REMARK   40  A    between atoms: _106  and  _107
REMARK   41  A    between atoms: _109  and  _111
REMARK   42  A    between atoms: _111  and  _112
REMARK   43  A    between atoms: _111  and  _114
REMARK   44  A    between atoms: _114  and  _115
REMARK   45  A    between atoms: _115  and  _116
REMARK   46  A    between atoms: _119  and  _121
REMARK   47  A    between atoms: _121  and  _122
REMARK   48  A    between atoms: _121  and  _124
REMARK   49  A    between atoms: _124  and  _125
REMARK   50  A    between atoms: _130  and  _132
REMARK   51  A    between atoms: _132  and  _133
REMARK   52  A    between atoms: _136  and  _138
REMARK   53  A    between atoms: _138  and  _139
REMARK   54  A    between atoms: _142  and  _144
REMARK   55  A    between atoms: _144  and  _145
REMARK   56  A    between atoms: _147  and  _149
REMARK   57  A    between atoms: _149  and  _150
REMARK   58  A    between atoms: _152  and  _154
REMARK   59  A    between atoms: _154  and  _155
REMARK   60  A    between atoms: _158  and  _160
REMARK   61  A    between atoms: _160  and  _161
REMARK   62  A    between atoms: _160  and  _163
REMARK   63  A    between atoms: _163  and  _164
REMARK   64  A    between atoms: _169  and  _170
REMARK   65  A    between atoms: _172  and  _174
REMARK   66  A    between atoms: _174  and  _175
REMARK   67  A    between atoms: _174  and  _177
REMARK   68  A    between atoms: _177  and  _178
REMARK   69  A    between atoms: _181  and  _183
REMARK   70  A    between atoms: _183  and  _184
REMARK   71  A    between atoms: _183  and  _186
REMARK   72  A    between atoms: _188  and  _190
REMARK   73  A    between atoms: _190  and  _191
REMARK   74  A    between atoms: _190  and  _193
REMARK   75  A    between atoms: _193  and  _194
REMARK   76  A    between atoms: _197  and  _199
REMARK   77  A    between atoms: _199  and  _200
REMARK   78  A    between atoms: _202  and  _204
REMARK   79  A    between atoms: _204  and  _205
REMARK   80  A    between atoms: _208  and  _209
REMARK   81  A    between atoms: _214  and  _216
REMARK   82  A    between atoms: _216  and  _217
REMARK   83  A    between atoms: _216  and  _219
REMARK   84  A    between atoms: _219  and  _220
REMARK   85  A    between atoms: _225  and  _227
REMARK   86  A    between atoms: _227  and  _228
REMARK   87  A    between atoms: _227  and  _230
REMARK   88  A    between atoms: _230  and  _231
REMARK   89  A    between atoms: _237  and  _239
REMARK   90  A    between atoms: _239  and  _240
REMARK   91  A    between atoms: _239  and  _242
REMARK   92  A    between atoms: _242  and  _243
REMARK   93  A    between atoms: _243  and  _244
REMARK   94  A    between atoms: _247  and  _249
REMARK   95  A    between atoms: _249  and  _250
REMARK   96  A    between atoms: _249  and  _252
REMARK   97  A    between atoms: _255  and  _257
REMARK   98  A    between atoms: _257  and  _258
REMARK   99  A    between atoms: _261  and  _263
REMARK  100  A    between atoms: _263  and  _264
REMARK  101  A    between atoms: _263  and  _266
REMARK  102  A    between atoms: _266  and  _267
REMARK  103  A    between atoms: _270  and  _272
REMARK  104  A    between atoms: _272  and  _273
REMARK  105  A    between atoms: _275  and  _277
REMARK  106  A    between atoms: _277  and  _278
REMARK  107  A    between atoms: _277  and  _280
REMARK  108  A    between atoms: _280  and  _281
REMARK  109  A    between atoms: _281  and  _282
REMARK  110  A    between atoms: _284  and  _286
REMARK  111  A    between atoms: _286  and  _287
REMARK  112  A    between atoms: _286  and  _289
REMARK  113  A    between atoms: _289  and  _290
REMARK  114  A    between atoms: _292  and  _294
REMARK  115  A    between atoms: _294  and  _295
REMARK  116  A    between atoms: _294  and  _297
REMARK  117  A    between atoms: _297  and  _298
REMARK  118  A    between atoms: _301  and  _303
REMARK  119  A    between atoms: _303  and  _304
REMARK  120  A    between atoms: _303  and  _306
REMARK  121  A    between atoms: _306  and  _307
REMARK  122  A    between atoms: _309  and  _311
REMARK  123  A    between atoms: _311  and  _312
REMARK  124  A    between atoms: _311  and  _314
REMARK  125  A    between atoms: _314  and  _315
REMARK  126  A    between atoms: _318  and  _320
REMARK  127  A    between atoms: _320  and  _321
REMARK  128  A    between atoms: _320  and  _323
REMARK  129  A    between atoms: _323  and  _324
REMARK  130  A    between atoms: _327  and  _329
REMARK  131  A    between atoms: _329  and  _330
REMARK  132  A    between atoms: _329  and  _332
REMARK  133  A    between atoms: _332  and  _333
REMARK  134  A    between atoms: _336  and  _338
REMARK  135  A    between atoms: _338  and  _339
REMARK  136  A    between atoms: _338  and  _341
REMARK  137  A    between atoms: _341  and  _342
REMARK  138  A    between atoms: _347  and  _349
REMARK  139  A    between atoms: _349  and  _350
REMARK  140  A    between atoms: _349  and  _352
REMARK  141  A    between atoms: _352  and  _353
REMARK  142  A    between atoms: _353  and  _354
REMARK  143  A    between atoms: _356  and  _358
REMARK  144  A    between atoms: _358  and  _359
REMARK  145  A    between atoms: _358  and  _361
REMARK  146  A    between atoms: _363  and  _365
REMARK  147  A    between atoms: _365  and  _366
REMARK  148  A    between atoms: _365  and  _368
REMARK  149  A    between atoms: _368  and  _369
REMARK  150  A    between atoms: _372  and  _374
REMARK  151  A    between atoms: _374  and  _375
REMARK  152  A    between atoms: _374  and  _377
REMARK  153  A    between atoms: _377  and  _378
REMARK  154  A    between atoms: _378  and  _379
REMARK  155  A    between atoms: _382  and  _384
REMARK  156  A    between atoms: _384  and  _385
REMARK  157  A    between atoms: _384  and  _387
REMARK  158  A    between atoms: _387  and  _388
REMARK  159  A    between atoms: _393  and  _395
REMARK  160  A    between atoms: _395  and  _396
REMARK  161  A    between atoms: _395  and  _398
REMARK  162  A    between atoms: _400  and  _402
REMARK  163  A    between atoms: _402  and  _403
REMARK  164  A    between atoms: _402  and  _405
REMARK  165  A    between atoms: _405  and  _406
REMARK  166  A    between atoms: _411  and  _413
REMARK  167  A    between atoms: _413  and  _414
REMARK  168  A    between atoms: _413  and  _416
REMARK  169  A    between atoms: _416  and  _417
REMARK  170  A    between atoms: _420  and  _422
REMARK  171  A    between atoms: _422  and  _423
REMARK  172  A    between atoms: _422  and  _425
REMARK  173  A    between atoms: _425  and  _426
REMARK  174  A    between atoms: _428  and  _430
REMARK  175  A    between atoms: _430  and  _431
REMARK  176  A    between atoms: _430  and  _433
REMARK  177  A    between atoms: _433  and  _434
REMARK  178  A    between atoms: _437  and  _439
REMARK  179  A    between atoms: _439  and  _440
REMARK  180  A    between atoms: _439  and  _442
REMARK  181  A    between atoms: _445  and  _447
REMARK  182  A    between atoms: _447  and  _448
REMARK  183  A    between atoms: _447  and  _450
REMARK  184  A    between atoms: _450  and  _451
REMARK  185  A    between atoms: _451  and  _452
REMARK  186  A    between atoms: _452  and  _453
REMARK  187  A    between atoms: _462  and  _464
REMARK  188  A    between atoms: _464  and  _465
REMARK  189  A    between atoms: _464  and  _467
REMARK  190  A    between atoms: _467  and  _468
REMARK  191  A    between atoms: _474  and  _476
REMARK  192  A    between atoms: _476  and  _477
REMARK  193  A    between atoms: _476  and  _479
REMARK  194  A    between atoms: _479  and  _480
REMARK                            x       y       z     vdW  Elec       q    Type
REMARK                         _______ _______ _______ _____ _____    ______ ____
ROOT
ATOM      1  C   GLY A   5      35.065  -4.209 108.333  0.00  0.00    +0.243 C 
ATOM      2  O   GLY A   5      34.763  -3.248 109.072  0.00  0.00    -0.273 OA
ATOM      3  N   GLY A   6      36.330  -4.439 107.947  0.00  0.00    -0.295 N 
ATOM      4  H   GLY A   6      36.527  -5.169 107.233  0.00  0.00    +0.150 HD
ENDROOT
BRANCH   3   5
ATOM      5  CA  GLY A   6      37.441  -3.665 108.527  0.00  0.00    +0.176 C 
BRANCH   5   6
ATOM      6  C   GLY A   6      37.557  -4.017 109.999  0.00  0.00    +0.246 C 
ATOM      7  N   PRO A   7      38.218  -3.169 110.804  0.00  0.00    -0.272 N 
ATOM      8  CD  PRO A   7      38.366  -3.510 112.225  0.00  0.00    +0.094 C 
ATOM      9  CG  PRO A   7      39.089  -2.339 112.821  0.00  0.00    +0.024 C 
ATOM     10  CB  PRO A   7      38.950  -1.173 111.813  0.00  0.00    +0.031 C 
ATOM     11  CA  PRO A   7      38.837  -1.878 110.458  0.00  0.00    +0.152 C 
ATOM     12  O   GLY A   6      37.055  -5.074 110.411  0.00  0.00    -0.273 OA
BRANCH  11  13
ATOM     13  C   PRO A   7      40.219  -1.982 109.837  0.00  0.00    +0.241 C 
ATOM     14  N   ASN A   8      40.852  -3.152 109.917  0.00  0.00    -0.297 N 
ATOM     15  H   ASN A   8      40.436  -3.934 110.462  0.00  0.00    +0.150 HD
ATOM     16  O   PRO A   7      40.721  -0.995 109.306  0.00  0.00    -0.273 OA
BRANCH  14  17
ATOM     17  CA  ASN A   8      42.138  -3.332 109.233  0.00  0.00    +0.158 C 
BRANCH  17  18
ATOM     18  C   ASN A   8      41.949  -3.282 107.697  0.00  0.00    +0.241 C 
ATOM     19  O   ASN A   8      40.869  -3.586 107.170  0.00  0.00    -0.273 OA
ATOM     20  N   PHE A   9      42.980  -2.862 106.980  0.00  0.00    -0.297 N 
ATOM     21  H   PHE A   9      43.833  -2.509 107.460  0.00  0.00    +0.150 HD
BRANCH  20  22
ATOM     22  CA  PHE A   9      42.928  -2.891 105.511  0.00  0.00    +0.153 C 
BRANCH  22  23
ATOM     23  C   PHE A   9      43.267  -4.326 105.053  0.00  0.00    +0.241 C 
ATOM     24  O   PHE A   9      43.662  -5.179 105.848  0.00  0.00    -0.273 OA
ATOM     25  N   GLU A  10      43.160  -4.575 103.758  0.00  0.00    -0.298 N 
ATOM     26  H   GLU A  10      43.021  -3.775 103.108  0.00  0.00    +0.150 HD
BRANCH  25  27
ATOM     27  CA  GLU A  10      43.229  -5.927 103.199  0.00  0.00    +0.137 C 
BRANCH  27  28
ATOM     28  C   GLU A  10      44.656  -6.492 103.005  0.00  0.00    +0.227 C 
ATOM     29  O   GLU A  10      45.597  -5.758 102.719  0.00  0.00    -0.286 OA
ENDBRANCH  27  28
BRANCH  27  30
ATOM     30  CB  GLU A  10      42.507  -5.913 101.849  0.00  0.00    +0.039 C 
BRANCH  30  31
ATOM     31  CG  GLU A  10      41.027  -5.586 101.959  0.00  0.00    +0.116 C 
BRANCH  31  32
ATOM     32  CD  GLU A  10      40.767  -4.096 102.367  0.00  0.00    +0.365 C 
ATOM     33  OE2 GLU A  10      39.854  -3.821 103.225  0.00  0.00    -0.246 OA
ATOM     34  OE1 GLU A  10      41.493  -3.215 101.821  0.00  0.00    -0.246 OA
ENDBRANCH  31  32
ENDBRANCH  30  31
ENDBRANCH  27  30
ENDBRANCH  25  27
ENDBRANCH  22  23
BRANCH  22  35
ATOM     35  CB  PHE A   9      43.880  -1.835 104.889  0.00  0.00    +0.055 C 
BRANCH  35  36
ATOM     36  CG  PHE A   9      43.552  -0.411 105.263  0.00  0.00    -0.020 A 
ATOM     37  CD2 PHE A   9      44.335   0.289 106.208  0.00  0.00    -0.004 A 
ATOM     38  CE2 PHE A   9      44.045   1.630 106.554  0.00  0.00    -0.000 A 
ATOM     39  CZ  PHE A   9      42.941   2.278 105.950  0.00  0.00    -0.000 A 
ATOM     40  CE1 PHE A   9      42.184   1.613 105.027  0.00  0.00    -0.000 A 
ATOM     41  CD1 PHE A   9      42.497   0.266 104.671  0.00  0.00    -0.004 A 
ENDBRANCH  35  36
ENDBRANCH  22  35
ENDBRANCH  20  22
ENDBRANCH  17  18
BRANCH  17  42
ATOM     42  CB  ASN A   8      42.825  -4.629 109.697  0.00  0.00    +0.114 C 
BRANCH  42  43
ATOM     43  CG  ASN A   8      42.039  -5.885 109.318  0.00  0.00    +0.222 C 
ATOM     44  OD1 ASN A   8      41.099  -6.267 110.004  0.00  0.00    -0.275 OA
ATOM     45  ND2 ASN A   8      42.410  -6.512 108.202  0.00  0.00    -0.329 N 
ATOM     46 HD21 ASN A   8      41.895  -7.358 107.885  0.00  0.00    +0.145 HD
ATOM     47 HD22 ASN A   8      43.214  -6.155 107.648  0.00  0.00    +0.145 HD
ENDBRANCH  42  43
ENDBRANCH  17  42
ENDBRANCH  14  17
ENDBRANCH  11  13
ENDBRANCH   5   6
ENDBRANCH   3   5
BRANCH   1  48
ATOM     48  CA  GLY A   5      33.974  -5.177 107.832  0.00  0.00    +0.176 C 
BRANCH  48  50
ATOM     49  C   LEU A   4      34.047  -4.729 105.436  0.00  0.00    +0.241 C 
ATOM     50  N   GLY A   5      34.097  -5.607 106.430  0.00  0.00    -0.295 N 
ATOM     51  H   GLY A   5      34.225  -6.616 106.214  0.00  0.00    +0.150 HD
ATOM     52  O   LEU A   4      33.885  -3.551 105.646  0.00  0.00    -0.273 OA
BRANCH  49  53
ATOM     53  CA  LEU A   4      34.245  -5.234 103.994  0.00  0.00    +0.149 C 
BRANCH  53  55
ATOM     54  C   CYS A   3      32.454  -4.396 102.547  0.00  0.00    +0.242 C 
ATOM     55  N   LEU A   4      33.679  -4.247 103.046  0.00  0.00    -0.297 N 
ATOM     56  H   LEU A   4      34.248  -3.423 102.765  0.00  0.00    +0.150 HD
ATOM     57  O   CYS A   3      31.746  -5.379 102.801  0.00  0.00    -0.273 OA
BRANCH  54  58
ATOM     58  CA  CYS A   3      31.936  -3.287 101.621  0.00  0.00    +0.160 C 
BRANCH  58  60
ATOM     59  C   THR A   2      32.719  -3.402  99.278  0.00  0.00    +0.243 C 
ATOM     60  N   CYS A   3      31.881  -3.764 100.245  0.00  0.00    -0.296 N 
ATOM     61  H   CYS A   3      31.129  -4.439 100.001  0.00  0.00    +0.150 HD
ATOM     62  O   THR A   2      33.664  -2.611  99.419  0.00  0.00    -0.273 OA
BRANCH  59  63
ATOM     63  CA  THR A   2      32.491  -4.049  97.894  0.00  0.00    +0.176 C 
BRANCH  63  65
ATOM     64  C   TYR A   1      32.119  -2.849  95.852  0.00  0.00    +0.239 C 
ATOM     65  N   THR A   2      32.943  -3.106  96.866  0.00  0.00    -0.295 N 
ATOM     66  H   THR A   2      33.877  -2.653  96.927  0.00  0.00    +0.150 HD
ATOM     67  O   TYR A   1      31.159  -3.556  95.618  0.00  0.00    -0.274 OA
BRANCH  64  68
ATOM     68  CA  TYR A   1      32.450  -1.721  94.904  0.00  0.00    +0.149 C 
BRANCH  68  69
ATOM     69  N   TYR A   1      31.971  -2.114  93.545  0.00  0.00    -0.238 NA
ATOM     70  H   TYR A   1      30.949  -2.182  93.367  0.00  0.00    +0.142 HD
ENDBRANCH  68  69
BRANCH  68  71
ATOM     71  CB  TYR A   1      31.809  -0.413  95.332  0.00  0.00    +0.053 C 
BRANCH  71  72
ATOM     72  CG  TYR A   1      31.984  -0.046  96.783  0.00  0.00    -0.020 A 
ATOM     73  CD2 TYR A   1      31.012  -0.401  97.742  0.00  0.00    -0.001 A 
ATOM     74  CE2 TYR A   1      31.157  -0.027  99.078  0.00  0.00    +0.036 A 
ATOM     75  CZ  TYR A   1      32.254   0.733  99.462  0.00  0.00    +0.134 A 
ATOM     76  CE1 TYR A   1      33.227   1.108  98.528  0.00  0.00    +0.036 A 
ATOM     77  CD1 TYR A   1      33.073   0.738  97.200  0.00  0.00    -0.001 A 
BRANCH  75  78
ATOM     78  OH  TYR A   1      32.387   1.116 100.779  0.00  0.00    -0.506 OA
ATOM     79  HH  TYR A   1      33.215   1.648 100.885  0.00  0.00    +0.292 HD
ENDBRANCH  75  78
ENDBRANCH  71  72
ENDBRANCH  68  71
ENDBRANCH  64  68
ENDBRANCH  63  65
BRANCH  63  80
ATOM     80  CB  THR A   2      33.141  -5.440  97.803  0.00  0.00    +0.137 C 
ATOM     81  CG2 THR A   2      34.613  -5.423  98.293  0.00  0.00    +0.034 C 
BRANCH  80  82
ATOM     82  OG1 THR A   2      32.390  -6.354  98.618  0.00  0.00    -0.382 OA
ATOM     83  HG1 THR A   2      31.457  -6.396  98.290  0.00  0.00    +0.210 HD
ENDBRANCH  80  82
ENDBRANCH  63  80
ENDBRANCH  59  63
ENDBRANCH  58  60
BRANCH  58  84
ATOM     84  CB  CYS A   3      30.540  -2.834 102.075  0.00  0.00    +0.098 C 
ATOM     85  SG  CYS A   3      30.440  -2.331 103.825  0.00  0.00    -0.080 S 
ENDBRANCH  58  84
ENDBRANCH  54  58
ENDBRANCH  53  55
BRANCH  53  86
ATOM     86  CB  LEU A   4      35.739  -5.486 103.701  0.00  0.00    +0.029 C 
BRANCH  86  87
ATOM     87  CG  LEU A   4      36.141  -5.799 102.246  0.00  0.00    +0.002 C 
ATOM     88  CD2 LEU A   4      37.597  -6.167 102.141  0.00  0.00    +0.000 C 
ATOM     89  CD1 LEU A   4      35.299  -6.945 101.696  0.00  0.00    +0.000 C 
ENDBRANCH  86  87
ENDBRANCH  53  86
ENDBRANCH  49  53
ENDBRANCH  48  50
ENDBRANCH   1  48
TORSDOF 34
REMARK  Name = ../refined-set-2016/2p4s/2p4s_pocket.pdb
REMARK  194 active torsions:
REMARK  status: ('A' for Active; 'I' for Inactive)
REMARK    1  A    between atoms: _1  and  _3
REMARK    2  A    between atoms: _3  and  _4
REMARK    3  A    between atoms: _6  and  _8
REMARK    4  A    between atoms: _8  and  _9
REMARK    5  A    between atoms: _8  and  _11
REMARK    6  A    between atoms: _11  and  _12
REMARK    7  A    between atoms: _14  and  _16
REMARK    8  A    between atoms: _16  and  _17
REMARK    9  A    between atoms: _19  and  _21
REMARK   10  A    between atoms: _21  and  _22
REMARK   11  A    between atoms: _21  and  _24
REMARK   12  A    between atoms: _27  and  _29
REMARK   13  A    between atoms: _29  and  _30
REMARK   14  A    between atoms: _33  and  _35
REMARK   15  A    between atoms: _35  and  _36
REMARK   16  A    between atoms: _35  and  _38
REMARK   17  A    between atoms: _38  and  _39
REMARK   18  A    between atoms: _44  and  _46
REMARK   19  A    between atoms: _46  and  _47
REMARK   20  A    between atoms: _46  and  _49
REMARK   21  A    between atoms: _49  and  _50
REMARK   22  A    between atoms: _50  and  _51
REMARK   23  A    between atoms: _51  and  _52
REMARK   24  A    between atoms: _61  and  _63
REMARK   25  A    between atoms: _63  and  _64
REMARK   26  A    between atoms: _63  and  _66
REMARK   27  A    between atoms: _66  and  _67
REMARK   28  A    between atoms: _73  and  _75
REMARK   29  A    between atoms: _75  and  _76
REMARK   30  A    between atoms: _75  and  _78
REMARK   31  A    between atoms: _78  and  _79
REMARK   32  A    between atoms: _84  and  _86
REMARK   33  A    between atoms: _86  and  _87
REMARK   34  A    between atoms: _86  and  _89
REMARK   35  A    between atoms: _89  and  _90
REMARK   36  A    between atoms: _95  and  _97
REMARK   37  A    between atoms: _97  and  _98
REMARK   38  A    between atoms: _97  and  _100
REMARK   39  A    between atoms: _100  and  _101
REMARK   40  A    between atoms: _106  and  _107
REMARK   41  A    between atoms: _109  and  _111
REMARK   42  A    between atoms: _111  and  _112
REMARK   43  A    between atoms: _111  and  _114
REMARK   44  A    between atoms: _114  and  _115
REMARK   45  A    between atoms: _115  and  _116
REMARK   46  A    between atoms: _119  and  _121
REMARK   47  A    between atoms: _121  and  _122
REMARK   48  A    between atoms: _121  and  _124
REMARK   49  A    between atoms: _124  and  _125
REMARK   50  A    between atoms: _130  and  _132
REMARK   51  A    between atoms: _132  and  _133
REMARK   52  A    between atoms: _136  and  _138
REMARK   53  A    between atoms: _138  and  _139
REMARK   54  A    between atoms: _142  and  _144
REMARK   55  A    between atoms: _144  and  _145
REMARK   56  A    between atoms: _147  and  _149
REMARK   57  A    between atoms: _149  and  _150
REMARK   58  A    between atoms: _152  and  _154
REMARK   59  A    between atoms: _154  and  _155
REMARK   60  A    between atoms: _158  and  _160
REMARK   61  A    between atoms: _160  and  _161
REMARK   62  A    between atoms: _160  and  _163
REMARK   63  A    between atoms: _163  and  _164
REMARK   64  A    between atoms: _169  and  _170
REMARK   65  A    between atoms: _172  and  _174
REMARK   66  A    between atoms: _174  and  _175
REMARK   67  A    between atoms: _174  and  _177
REMARK   68  A    between atoms: _177  and  _178
REMARK   69  A    between atoms: _181  and  _183
REMARK   70  A    between atoms: _183  and  _184
REMARK   71  A    between atoms: _183  and  _186
REMARK   72  A    between atoms: _188  and  _190
REMARK   73  A    between atoms: _190  and  _191
REMARK   74  A    between atoms: _190  and  _193
REMARK   75  A    between atoms: _193  and  _194
REMARK   76  A    between atoms: _197  and  _199
REMARK   77  A    between atoms: _199  and  _200
REMARK   78  A    between atoms: _202  and  _204
REMARK   79  A    between atoms: _204  and  _205
REMARK   80  A    between atoms: _208  and  _209
REMARK   81  A    between atoms: _214  and  _216
REMARK   82  A    between atoms: _216  and  _217
REMARK   83  A    between atoms: _216  and  _219
REMARK   84  A    between atoms: _219  and  _220
REMARK   85  A    between atoms: _225  and  _227
REMARK   86  A    between atoms: _227  and  _228
REMARK   87  A    between atoms: _227  and  _230
REMARK   88  A    between atoms: _230  and  _231
REMARK   89  A    between atoms: _237  and  _239
REMARK   90  A    between atoms: _239  and  _240
REMARK   91  A    between atoms: _239  and  _242
REMARK   92  A    between atoms: _242  and  _243
REMARK   93  A    between atoms: _243  and  _244
REMARK   94  A    between atoms: _247  and  _249
REMARK   95  A    between atoms: _249  and  _250
REMARK   96  A    between atoms: _249  and  _252
REMARK   97  A    between atoms: _255  and  _257
REMARK   98  A    between atoms: _257  and  _258
REMARK   99  A    between atoms: _261  and  _263
REMARK  100  A    between atoms: _263  and  _264
REMARK  101  A    between atoms: _263  and  _266
REMARK  102  A    between atoms: _266  and  _267
REMARK  103  A    between atoms: _270  and  _272
REMARK  104  A    between atoms: _272  and  _273
REMARK  105  A    between atoms: _275  and  _277
REMARK  106  A    between atoms: _277  and  _278
REMARK  107  A    between atoms: _277  and  _280
REMARK  108  A    between atoms: _280  and  _281
REMARK  109  A    between atoms: _281  and  _282
REMARK  110  A    between atoms: _284  and  _286
REMARK  111  A    between atoms: _286  and  _287
REMARK  112  A    between atoms: _286  and  _289
REMARK  113  A    between atoms: _289  and  _290
REMARK  114  A    between atoms: _292  and  _294
REMARK  115  A    between atoms: _294  and  _295
REMARK  116  A    between atoms: _294  and  _297
REMARK  117  A    between atoms: _297  and  _298
REMARK  118  A    between atoms: _301  and  _303
REMARK  119  A    between atoms: _303  and  _304
REMARK  120  A    between atoms: _303  and  _306
REMARK  121  A    between atoms: _306  and  _307
REMARK  122  A    between atoms: _309  and  _311
REMARK  123  A    between atoms: _311  and  _312
REMARK  124  A    between atoms: _311  and  _314
REMARK  125  A    between atoms: _314  and  _315
REMARK  126  A    between atoms: _318  and  _320
REMARK  127  A    between atoms: _320  and  _321
REMARK  128  A    between atoms: _320  and  _323
REMARK  129  A    between atoms: _323  and  _324
REMARK  130  A    between atoms: _327  and  _329
REMARK  131  A    between atoms: _329  and  _330
REMARK  132  A    between atoms: _329  and  _332
REMARK  133  A    between atoms: _332  and  _333
REMARK  134  A    between atoms: _336  and  _338
REMARK  135  A    between atoms: _338  and  _339
REMARK  136  A    between atoms: _338  and  _341
REMARK  137  A    between atoms: _341  and  _342
REMARK  138  A    between atoms: _347  and  _349
REMARK  139  A    between atoms: _349  and  _350
REMARK  140  A    between atoms: _349  and  _352
REMARK  141  A    between atoms: _352  and  _353
REMARK  142  A    between atoms: _353  and  _354
REMARK  143  A    between atoms: _356  and  _358
REMARK  144  A    between atoms: _358  and  _359
REMARK  145  A    between atoms: _358  and  _361
REMARK  146  A    between atoms: _363  and  _365
REMARK  147  A    between atoms: _365  and  _366
REMARK  148  A    between atoms: _365  and  _368
REMARK  149  A    between atoms: _368  and  _369
REMARK  150  A    between atoms: _372  and  _374
REMARK  151  A    between atoms: _374  and  _375
REMARK  152  A    between atoms: _374  and  _377
REMARK  153  A    between atoms: _377  and  _378
REMARK  154  A    between atoms: _378  and  _379
REMARK  155  A    between atoms: _382  and  _384
REMARK  156  A    between atoms: _384  and  _385
REMARK  157  A    between atoms: _384  and  _387
REMARK  158  A    between atoms: _387  and  _388
REMARK  159  A    between atoms: _393  and  _395
REMARK  160  A    between atoms: _395  and  _396
REMARK  161  A    between atoms: _395  and  _398
REMARK  162  A    between atoms: _400  and  _402
REMARK  163  A    between atoms: _402  and  _403
REMARK  164  A    between atoms: _402  and  _405
REMARK  165  A    between atoms: _405  and  _406
REMARK  166  A    between atoms: _411  and  _413
REMARK  167  A    between atoms: _413  and  _414
REMARK  168  A    between atoms: _413  and  _416
REMARK  169  A    between atoms: _416  and  _417
REMARK  170  A    between atoms: _420  and  _422
REMARK  171  A    between atoms: _422  and  _423
REMARK  172  A    between atoms: _422  and  _425
REMARK  173  A    between atoms: _425  and  _426
REMARK  174  A    between atoms: _428  and  _430
REMARK  175  A    between atoms: _430  and  _431
REMARK  176  A    between atoms: _430  and  _433
REMARK  177  A    between atoms: _433  and  _434
REMARK  178  A    between atoms: _437  and  _439
REMARK  179  A    between atoms: _439  and  _440
REMARK  180  A    between atoms: _439  and  _442
REMARK  181  A    between atoms: _445  and  _447
REMARK  182  A    between atoms: _447  and  _448
REMARK  183  A    between atoms: _447  and  _450
REMARK  184  A    between atoms: _450  and  _451
REMARK  185  A    between atoms: _451  and  _452
REMARK  186  A    between atoms: _452  and  _453
REMARK  187  A    between atoms: _462  and  _464
REMARK  188  A    between atoms: _464  and  _465
REMARK  189  A    between atoms: _464  and  _467
REMARK  190  A    between atoms: _467  and  _468
REMARK  191  A    between atoms: _474  and  _476
REMARK  192  A    between atoms: _476  and  _477
REMARK  193  A    between atoms: _476  and  _479
REMARK  194  A    between atoms: _479  and  _480
REMARK                            x       y       z     vdW  Elec       q    Type
REMARK                         _______ _______ _______ _____ _____    ______ ____
ROOT
ATOM      1  CA  VAL A   1      43.028  -8.084  97.313  0.00  0.00    +0.133 C 
ENDROOT
BRANCH   1   2
ATOM      2  CB  VAL A   1      44.137  -6.957  97.268  0.00  0.00    +0.023 C 
ATOM      3  CG2 VAL A   1      44.010  -5.981  98.448  0.00  0.00    +0.002 C 
ATOM      4  CG1 VAL A   1      44.093  -6.162  95.940  0.00  0.00    +0.002 C 
ENDBRANCH   1   2
BRANCH   1   5
ATOM      5  N   VAL A   1      43.183  -8.983  98.429  0.00  0.00    -0.239 NA
ATOM      6  H   VAL A   1      44.019  -8.901  99.042  0.00  0.00    +0.142 HD
ENDBRANCH   1   5
BRANCH   1   7
ATOM      7  C   VAL A   1      42.988  -8.893  96.014  0.00  0.00    +0.224 C 
ATOM      8  O   VAL A   1      42.167  -8.631  95.161  0.00  0.00    -0.287 OA
ENDBRANCH   1   7
TORSDOF 3
REMARK  Name = ../refined-set-2016/2p4s/2p4s_pocket.pdb
REMARK  194 active torsions:
REMARK  status: ('A' for Active; 'I' for Inactive)
REMARK    1  A    between atoms: _1  and  _3
REMARK    2  A    between atoms: _3  and  _4
REMARK    3  A    between atoms: _6  and  _8
REMARK    4  A    between atoms: _8  and  _9
REMARK    5  A    between atoms: _8  and  _11
REMARK    6  A    between atoms: _11  and  _12
REMARK    7  A    between atoms: _14  and  _16
REMARK    8  A    between atoms: _16  and  _17
REMARK    9  A    between atoms: _19  and  _21
REMARK   10  A    between atoms: _21  and  _22
REMARK   11  A    between atoms: _21  and  _24
REMARK   12  A    between atoms: _27  and  _29
REMARK   13  A    between atoms: _29  and  _30
REMARK   14  A    between atoms: _33  and  _35
REMARK   15  A    between atoms: _35  and  _36
REMARK   16  A    between atoms: _35  and  _38
REMARK   17  A    between atoms: _38  and  _39
REMARK   18  A    between atoms: _44  and  _46
REMARK   19  A    between atoms: _46  and  _47
REMARK   20  A    between atoms: _46  and  _49
REMARK   21  A    between atoms: _49  and  _50
REMARK   22  A    between atoms: _50  and  _51
REMARK   23  A    between atoms: _51  and  _52
REMARK   24  A    between atoms: _61  and  _63
REMARK   25  A    between atoms: _63  and  _64
REMARK   26  A    between atoms: _63  and  _66
REMARK   27  A    between atoms: _66  and  _67
REMARK   28  A    between atoms: _73  and  _75
REMARK   29  A    between atoms: _75  and  _76
REMARK   30  A    between atoms: _75  and  _78
REMARK   31  A    between atoms: _78  and  _79
REMARK   32  A    between atoms: _84  and  _86
REMARK   33  A    between atoms: _86  and  _87
REMARK   34  A    between atoms: _86  and  _89
REMARK   35  A    between atoms: _89  and  _90
REMARK   36  A    between atoms: _95  and  _97
REMARK   37  A    between atoms: _97  and  _98
REMARK   38  A    between atoms: _97  and  _100
REMARK   39  A    between atoms: _100  and  _101
REMARK   40  A    between atoms: _106  and  _107
REMARK   41  A    between atoms: _109  and  _111
REMARK   42  A    between atoms: _111  and  _112
REMARK   43  A    between atoms: _111  and  _114
REMARK   44  A    between atoms: _114  and  _115
REMARK   45  A    between atoms: _115  and  _116
REMARK   46  A    between atoms: _119  and  _121
REMARK   47  A    between atoms: _121  and  _122
REMARK   48  A    between atoms: _121  and  _124
REMARK   49  A    between atoms: _124  and  _125
REMARK   50  A    between atoms: _130  and  _132
REMARK   51  A    between atoms: _132  and  _133
REMARK   52  A    between atoms: _136  and  _138
REMARK   53  A    between atoms: _138  and  _139
REMARK   54  A    between atoms: _142  and  _144
REMARK   55  A    between atoms: _144  and  _145
REMARK   56  A    between atoms: _147  and  _149
REMARK   57  A    between atoms: _149  and  _150
REMARK   58  A    between atoms: _152  and  _154
REMARK   59  A    between atoms: _154  and  _155
REMARK   60  A    between atoms: _158  and  _160
REMARK   61  A    between atoms: _160  and  _161
REMARK   62  A    between atoms: _160  and  _163
REMARK   63  A    between atoms: _163  and  _164
REMARK   64  A    between atoms: _169  and  _170
REMARK   65  A    between atoms: _172  and  _174
REMARK   66  A    between atoms: _174  and  _175
REMARK   67  A    between atoms: _174  and  _177
REMARK   68  A    between atoms: _177  and  _178
REMARK   69  A    between atoms: _181  and  _183
REMARK   70  A    between atoms: _183  and  _184
REMARK   71  A    between atoms: _183  and  _186
REMARK   72  A    between atoms: _188  and  _190
REMARK   73  A    between atoms: _190  and  _191
REMARK   74  A    between atoms: _190  and  _193
REMARK   75  A    between atoms: _193  and  _194
REMARK   76  A    between atoms: _197  and  _199
REMARK   77  A    between atoms: _199  and  _200
REMARK   78  A    between atoms: _202  and  _204
REMARK   79  A    between atoms: _204  and  _205
REMARK   80  A    between atoms: _208  and  _209
REMARK   81  A    between atoms: _214  and  _216
REMARK   82  A    between atoms: _216  and  _217
REMARK   83  A    between atoms: _216  and  _219
REMARK   84  A    between atoms: _219  and  _220
REMARK   85  A    between atoms: _225  and  _227
REMARK   86  A    between atoms: _227  and  _228
REMARK   87  A    between atoms: _227  and  _230
REMARK   88  A    between atoms: _230  and  _231
REMARK   89  A    between atoms: _237  and  _239
REMARK   90  A    between atoms: _239  and  _240
REMARK   91  A    between atoms: _239  and  _242
REMARK   92  A    between atoms: _242  and  _243
REMARK   93  A    between atoms: _243  and  _244
REMARK   94  A    between atoms: _247  and  _249
REMARK   95  A    between atoms: _249  and  _250
REMARK   96  A    between atoms: _249  and  _252
REMARK   97  A    between atoms: _255  and  _257
REMARK   98  A    between atoms: _257  and  _258
REMARK   99  A    between atoms: _261  and  _263
REMARK  100  A    between atoms: _263  and  _264
REMARK  101  A    between atoms: _263  and  _266
REMARK  102  A    between atoms: _266  and  _267
REMARK  103  A    between atoms: _270  and  _272
REMARK  104  A    between atoms: _272  and  _273
REMARK  105  A    between atoms: _275  and  _277
REMARK  106  A    between atoms: _277  and  _278
REMARK  107  A    between atoms: _277  and  _280
REMARK  108  A    between atoms: _280  and  _281
REMARK  109  A    between atoms: _281  and  _282
REMARK  110  A    between atoms: _284  and  _286
REMARK  111  A    between atoms: _286  and  _287
REMARK  112  A    between atoms: _286  and  _289
REMARK  113  A    between atoms: _289  and  _290
REMARK  114  A    between atoms: _292  and  _294
REMARK  115  A    between atoms: _294  and  _295
REMARK  116  A    between atoms: _294  and  _297
REMARK  117  A    between atoms: _297  and  _298
REMARK  118  A    between atoms: _301  and  _303
REMARK  119  A    between atoms: _303  and  _304
REMARK  120  A    between atoms: _303  and  _306
REMARK  121  A    between atoms: _306  and  _307
REMARK  122  A    between atoms: _309  and  _311
REMARK  123  A    between atoms: _311  and  _312
REMARK  124  A    between atoms: _311  and  _314
REMARK  125  A    between atoms: _314  and  _315
REMARK  126  A    between atoms: _318  and  _320
REMARK  127  A    between atoms: _320  and  _321
REMARK  128  A    between atoms: _320  and  _323
REMARK  129  A    between atoms: _323  and  _324
REMARK  130  A    between atoms: _327  and  _329
REMARK  131  A    between atoms: _329  and  _330
REMARK  132  A    between atoms: _329  and  _332
REMARK  133  A    between atoms: _332  and  _333
REMARK  134  A    between atoms: _336  and  _338
REMARK  135  A    between atoms: _338  and  _339
REMARK  136  A    between atoms: _338  and  _341
REMARK  137  A    between atoms: _341  and  _342
REMARK  138  A    between atoms: _347  and  _349
REMARK  139  A    between atoms: _349  and  _350
REMARK  140  A    between atoms: _349  and  _352
REMARK  141  A    between atoms: _352  and  _353
REMARK  142  A    between atoms: _353  and  _354
REMARK  143  A    between atoms: _356  and  _358
REMARK  144  A    between atoms: _358  and  _359
REMARK  145  A    between atoms: _358  and  _361
REMARK  146  A    between atoms: _363  and  _365
REMARK  147  A    between atoms: _365  and  _366
REMARK  148  A    between atoms: _365  and  _368
REMARK  149  A    between atoms: _368  and  _369
REMARK  150  A    between atoms: _372  and  _374
REMARK  151  A    between atoms: _374  and  _375
REMARK  152  A    between atoms: _374  and  _377
REMARK  153  A    between atoms: _377  and  _378
REMARK  154  A    between atoms: _378  and  _379
REMARK  155  A    between atoms: _382  and  _384
REMARK  156  A    between atoms: _384  and  _385
REMARK  157  A    between atoms: _384  and  _387
REMARK  158  A    between atoms: _387  and  _388
REMARK  159  A    between atoms: _393  and  _395
REMARK  160  A    between atoms: _395  and  _396
REMARK  161  A    between atoms: _395  and  _398
REMARK  162  A    between atoms: _400  and  _402
REMARK  163  A    between atoms: _402  and  _403
REMARK  164  A    between atoms: _402  and  _405
REMARK  165  A    between atoms: _405  and  _406
REMARK  166  A    between atoms: _411  and  _413
REMARK  167  A    between atoms: _413  and  _414
REMARK  168  A    between atoms: _413  and  _416
REMARK  169  A    between atoms: _416  and  _417
REMARK  170  A    between atoms: _420  and  _422
REMARK  171  A    between atoms: _422  and  _423
REMARK  172  A    between atoms: _422  and  _425
REMARK  173  A    between atoms: _425  and  _426
REMARK  174  A    between atoms: _428  and  _430
REMARK  175  A    between atoms: _430  and  _431
REMARK  176  A    between atoms: _430  and  _433
REMARK  177  A    between atoms: _433  and  _434
REMARK  178  A    between atoms: _437  and  _439
REMARK  179  A    between atoms: _439  and  _440
REMARK  180  A    between atoms: _439  and  _442
REMARK  181  A    between atoms: _445  and  _447
REMARK  182  A    between atoms: _447  and  _448
REMARK  183  A    between atoms: _447  and  _450
REMARK  184  A    between atoms: _450  and  _451
REMARK  185  A    between atoms: _451  and  _452
REMARK  186  A    between atoms: _452  and  _453
REMARK  187  A    between atoms: _462  and  _464
REMARK  188  A    between atoms: _464  and  _465
REMARK  189  A    between atoms: _464  and  _467
REMARK  190  A    between atoms: _467  and  _468
REMARK  191  A    between atoms: _474  and  _476
REMARK  192  A    between atoms: _476  and  _477
REMARK  193  A    between atoms: _476  and  _479
REMARK  194  A    between atoms: _479  and  _480
REMARK                            x       y       z     vdW  Elec       q    Type
REMARK                         _______ _______ _______ _____ _____    ______ ____
ROOT
ATOM      1  CA  MET A   4      33.794  -0.374 104.390  0.00  0.00    +0.149 C 
ENDROOT
BRANCH   1   3
ATOM      2  C   GLY A   3      35.055  -0.664 102.283  0.00  0.00    +0.243 C 
ATOM      3  N   MET A   4      34.416   0.137 103.156  0.00  0.00    -0.297 N 
ATOM      4  H   MET A   4      34.359   1.155 102.952  0.00  0.00    +0.150 HD
ATOM      5  O   GLY A   3      35.150  -1.879 102.406  0.00  0.00    -0.273 OA
BRANCH   2   6
ATOM      6  CA  GLY A   3      35.659   0.001 101.076  0.00  0.00    +0.176 C 
BRANCH   6   8
ATOM      7  C   ILE A   2      37.101  -0.833  99.337  0.00  0.00    +0.241 C 
ATOM      8  N   GLY A   3      35.984  -0.949 100.049  0.00  0.00    -0.295 N 
ATOM      9  H   GLY A   3      35.336  -1.740  99.859  0.00  0.00    +0.150 HD
ATOM     10  O   ILE A   2      37.953   0.049  99.531  0.00  0.00    -0.273 OA
BRANCH   7  11
ATOM     11  CA  ILE A   2      37.304  -1.872  98.244  0.00  0.00    +0.148 C 
BRANCH  11  13
ATOM     12  C   ALA A   1      36.684  -1.314  95.958  0.00  0.00    +0.238 C 
ATOM     13  N   ILE A   2      37.548  -1.223  96.958  0.00  0.00    -0.297 N 
ATOM     14  H   ILE A   2      38.422  -0.676  96.824  0.00  0.00    +0.150 HD
ATOM     15  O   ALA A   1      35.635  -1.904  96.039  0.00  0.00    -0.274 OA
BRANCH  12  16
ATOM     16  CA  ALA A   1      37.097  -0.674  94.640  0.00  0.00    +0.145 C 
ATOM     17  CB  ALA A   1      36.321   0.659  94.412  0.00  0.00    +0.028 C 
BRANCH  16  18
ATOM     18  N   ALA A   1      36.876  -1.641  93.554  0.00  0.00    -0.238 NA
ATOM     19  H   ALA A   1      35.998  -2.198  93.545  0.00  0.00    +0.142 HD
ENDBRANCH  16  18
ENDBRANCH  12  16
ENDBRANCH  11  13
BRANCH  11  20
ATOM     20  CB  ILE A   2      38.458  -2.826  98.671  0.00  0.00    +0.027 C 
ATOM     21  CG2 ILE A   2      38.148  -3.409 100.090  0.00  0.00    +0.002 C 
BRANCH  20  22
ATOM     22  CG1 ILE A   2      38.644  -3.985  97.649  0.00  0.00    +0.002 C 
ATOM     23  CD1 ILE A   2      40.099  -4.717  97.722  0.00  0.00    +0.000 C 
ENDBRANCH  20  22
ENDBRANCH  11  20
ENDBRANCH   7  11
ENDBRANCH   6   8
ENDBRANCH   2   6
ENDBRANCH   1   3
BRANCH   1  24
ATOM     24  C   MET A   4      32.435   0.259 104.718  0.00  0.00    +0.241 C 
ATOM     25  O   MET A   4      32.087   0.361 105.890  0.00  0.00    -0.273 OA
ATOM     26  N   SER A   5      31.646   0.683 103.721  0.00  0.00    -0.295 N 
ATOM     27  H   SER A   5      31.924   0.514 102.733  0.00  0.00    +0.150 HD
BRANCH  26  28
ATOM     28  CA  SER A   5      30.394   1.383 104.018  0.00  0.00    +0.178 C 
BRANCH  28  29
ATOM     29  C   SER A   5      29.418   1.248 102.856  0.00  0.00    +0.243 C 
ATOM     30  N   THR A   6      28.355   2.079 102.833  0.00  0.00    -0.296 N 
ATOM     31  H   THR A   6      28.051   2.548 103.710  0.00  0.00    +0.150 HD
ATOM     32  O   SER A   5      29.623   0.381 101.979  0.00  0.00    -0.273 OA
BRANCH  30  33
ATOM     33  CA  THR A   6      27.603   2.337 101.554  0.00  0.00    +0.164 C 
BRANCH  33  34
ATOM     34  CB  THR A   6      28.594   2.658 100.389  0.00  0.00    +0.136 C 
ATOM     35  CG2 THR A   6      27.889   2.907  99.032  0.00  0.00    +0.034 C 
BRANCH  34  36
ATOM     36  OG1 THR A   6      29.309   3.831 100.750  0.00  0.00    -0.382 OA
ATOM     37  HG1 THR A   6      29.804   3.668 101.592  0.00  0.00    +0.210 HD
ENDBRANCH  34  36
ENDBRANCH  33  34
BRANCH  33  38
ATOM     38  C   THR A   6      26.620   1.268 101.097  0.00  0.00    +0.229 C 
ATOM     39  O   THR A   6      25.452   1.579 100.836  0.00  0.00    -0.286 OA
ENDBRANCH  33  38
ENDBRANCH  30  33
ENDBRANCH  28  29
BRANCH  28  40
ATOM     40  CB  SER A   5      30.684   2.845 104.316  0.00  0.00    +0.166 C 
BRANCH  40  41
ATOM     41  OG  SER A   5      30.986   3.525 103.109  0.00  0.00    -0.380 OA
ATOM     42  H   SER A   5      30.213   3.461 102.493  0.00  0.00    +0.211 HD
ENDBRANCH  40  41
ENDBRANCH  28  40
ENDBRANCH  26  28
ENDBRANCH   1  24
BRANCH   1  43
ATOM     43  CB  MET A   4      34.734  -0.137 105.590  0.00  0.00    +0.041 C 
BRANCH  43  44
ATOM     44  CG  MET A   4      36.130  -0.753 105.418  0.00  0.00    +0.060 C 
BRANCH  44  45
ATOM     45  SD  MET A   4      37.141  -0.370 106.816  0.00  0.00    -0.139 S 
ATOM     46  CE  MET A   4      38.747  -1.079 106.379  0.00  0.00    +0.069 C 
ENDBRANCH  44  45
ENDBRANCH  43  44
ENDBRANCH   1  43
TORSDOF 21
REMARK  Name = ../refined-set-2016/2p4s/2p4s_pocket.pdb
REMARK  194 active torsions:
REMARK  status: ('A' for Active; 'I' for Inactive)
REMARK    1  A    between atoms: _1  and  _3
REMARK    2  A    between atoms: _3  and  _4
REMARK    3  A    between atoms: _6  and  _8
REMARK    4  A    between atoms: _8  and  _9
REMARK    5  A    between atoms: _8  and  _11
REMARK    6  A    between atoms: _11  and  _12
REMARK    7  A    between atoms: _14  and  _16
REMARK    8  A    between atoms: _16  and  _17
REMARK    9  A    between atoms: _19  and  _21
REMARK   10  A    between atoms: _21  and  _22
REMARK   11  A    between atoms: _21  and  _24
REMARK   12  A    between atoms: _27  and  _29
REMARK   13  A    between atoms: _29  and  _30
REMARK   14  A    between atoms: _33  and  _35
REMARK   15  A    between atoms: _35  and  _36
REMARK   16  A    between atoms: _35  and  _38
REMARK   17  A    between atoms: _38  and  _39
REMARK   18  A    between atoms: _44  and  _46
REMARK   19  A    between atoms: _46  and  _47
REMARK   20  A    between atoms: _46  and  _49
REMARK   21  A    between atoms: _49  and  _50
REMARK   22  A    between atoms: _50  and  _51
REMARK   23  A    between atoms: _51  and  _52
REMARK   24  A    between atoms: _61  and  _63
REMARK   25  A    between atoms: _63  and  _64
REMARK   26  A    between atoms: _63  and  _66
REMARK   27  A    between atoms: _66  and  _67
REMARK   28  A    between atoms: _73  and  _75
REMARK   29  A    between atoms: _75  and  _76
REMARK   30  A    between atoms: _75  and  _78
REMARK   31  A    between atoms: _78  and  _79
REMARK   32  A    between atoms: _84  and  _86
REMARK   33  A    between atoms: _86  and  _87
REMARK   34  A    between atoms: _86  and  _89
REMARK   35  A    between atoms: _89  and  _90
REMARK   36  A    between atoms: _95  and  _97
REMARK   37  A    between atoms: _97  and  _98
REMARK   38  A    between atoms: _97  and  _100
REMARK   39  A    between atoms: _100  and  _101
REMARK   40  A    between atoms: _106  and  _107
REMARK   41  A    between atoms: _109  and  _111
REMARK   42  A    between atoms: _111  and  _112
REMARK   43  A    between atoms: _111  and  _114
REMARK   44  A    between atoms: _114  and  _115
REMARK   45  A    between atoms: _115  and  _116
REMARK   46  A    between atoms: _119  and  _121
REMARK   47  A    between atoms: _121  and  _122
REMARK   48  A    between atoms: _121  and  _124
REMARK   49  A    between atoms: _124  and  _125
REMARK   50  A    between atoms: _130  and  _132
REMARK   51  A    between atoms: _132  and  _133
REMARK   52  A    between atoms: _136  and  _138
REMARK   53  A    between atoms: _138  and  _139
REMARK   54  A    between atoms: _142  and  _144
REMARK   55  A    between atoms: _144  and  _145
REMARK   56  A    between atoms: _147  and  _149
REMARK   57  A    between atoms: _149  and  _150
REMARK   58  A    between atoms: _152  and  _154
REMARK   59  A    between atoms: _154  and  _155
REMARK   60  A    between atoms: _158  and  _160
REMARK   61  A    between atoms: _160  and  _161
REMARK   62  A    between atoms: _160  and  _163
REMARK   63  A    between atoms: _163  and  _164
REMARK   64  A    between atoms: _169  and  _170
REMARK   65  A    between atoms: _172  and  _174
REMARK   66  A    between atoms: _174  and  _175
REMARK   67  A    between atoms: _174  and  _177
REMARK   68  A    between atoms: _177  and  _178
REMARK   69  A    between atoms: _181  and  _183
REMARK   70  A    between atoms: _183  and  _184
REMARK   71  A    between atoms: _183  and  _186
REMARK   72  A    between atoms: _188  and  _190
REMARK   73  A    between atoms: _190  and  _191
REMARK   74  A    between atoms: _190  and  _193
REMARK   75  A    between atoms: _193  and  _194
REMARK   76  A    between atoms: _197  and  _199
REMARK   77  A    between atoms: _199  and  _200
REMARK   78  A    between atoms: _202  and  _204
REMARK   79  A    between atoms: _204  and  _205
REMARK   80  A    between atoms: _208  and  _209
REMARK   81  A    between atoms: _214  and  _216
REMARK   82  A    between atoms: _216  and  _217
REMARK   83  A    between atoms: _216  and  _219
REMARK   84  A    between atoms: _219  and  _220
REMARK   85  A    between atoms: _225  and  _227
REMARK   86  A    between atoms: _227  and  _228
REMARK   87  A    between atoms: _227  and  _230
REMARK   88  A    between atoms: _230  and  _231
REMARK   89  A    between atoms: _237  and  _239
REMARK   90  A    between atoms: _239  and  _240
REMARK   91  A    between atoms: _239  and  _242
REMARK   92  A    between atoms: _242  and  _243
REMARK   93  A    between atoms: _243  and  _244
REMARK   94  A    between atoms: _247  and  _249
REMARK   95  A    between atoms: _249  and  _250
REMARK   96  A    between atoms: _249  and  _252
REMARK   97  A    between atoms: _255  and  _257
REMARK   98  A    between atoms: _257  and  _258
REMARK   99  A    between atoms: _261  and  _263
REMARK  100  A    between atoms: _263  and  _264
REMARK  101  A    between atoms: _263  and  _266
REMARK  102  A    between atoms: _266  and  _267
REMARK  103  A    between atoms: _270  and  _272
REMARK  104  A    between atoms: _272  and  _273
REMARK  105  A    between atoms: _275  and  _277
REMARK  106  A    between atoms: _277  and  _278
REMARK  107  A    between atoms: _277  and  _280
REMARK  108  A    between atoms: _280  and  _281
REMARK  109  A    between atoms: _281  and  _282
REMARK  110  A    between atoms: _284  and  _286
REMARK  111  A    between atoms: _286  and  _287
REMARK  112  A    between atoms: _286  and  _289
REMARK  113  A    between atoms: _289  and  _290
REMARK  114  A    between atoms: _292  and  _294
REMARK  115  A    between atoms: _294  and  _295
REMARK  116  A    between atoms: _294  and  _297
REMARK  117  A    between atoms: _297  and  _298
REMARK  118  A    between atoms: _301  and  _303
REMARK  119  A    between atoms: _303  and  _304
REMARK  120  A    between atoms: _303  and  _306
REMARK  121  A    between atoms: _306  and  _307
REMARK  122  A    between atoms: _309  and  _311
REMARK  123  A    between atoms: _311  and  _312
REMARK  124  A    between atoms: _311  and  _314
REMARK  125  A    between atoms: _314  and  _315
REMARK  126  A    between atoms: _318  and  _320
REMARK  127  A    between atoms: _320  and  _321
REMARK  128  A    between atoms: _320  and  _323
REMARK  129  A    between atoms: _323  and  _324
REMARK  130  A    between atoms: _327  and  _329
REMARK  131  A    between atoms: _329  and  _330
REMARK  132  A    between atoms: _329  and  _332
REMARK  133  A    between atoms: _332  and  _333
REMARK  134  A    between atoms: _336  and  _338
REMARK  135  A    between atoms: _338  and  _339
REMARK  136  A    between atoms: _338  and  _341
REMARK  137  A    between atoms: _341  and  _342
REMARK  138  A    between atoms: _347  and  _349
REMARK  139  A    between atoms: _349  and  _350
REMARK  140  A    between atoms: _349  and  _352
REMARK  141  A    between atoms: _352  and  _353
REMARK  142  A    between atoms: _353  and  _354
REMARK  143  A    between atoms: _356  and  _358
REMARK  144  A    between atoms: _358  and  _359
REMARK  145  A    between atoms: _358  and  _361
REMARK  146  A    between atoms: _363  and  _365
REMARK  147  A    between atoms: _365  and  _366
REMARK  148  A    between atoms: _365  and  _368
REMARK  149  A    between atoms: _368  and  _369
REMARK  150  A    between atoms: _372  and  _374
REMARK  151  A    between atoms: _374  and  _375
REMARK  152  A    between atoms: _374  and  _377
REMARK  153  A    between atoms: _377  and  _378
REMARK  154  A    between atoms: _378  and  _379
REMARK  155  A    between atoms: _382  and  _384
REMARK  156  A    between atoms: _384  and  _385
REMARK  157  A    between atoms: _384  and  _387
REMARK  158  A    between atoms: _387  and  _388
REMARK  159  A    between atoms: _393  and  _395
REMARK  160  A    between atoms: _395  and  _396
REMARK  161  A    between atoms: _395  and  _398
REMARK  162  A    between atoms: _400  and  _402
REMARK  163  A    between atoms: _402  and  _403
REMARK  164  A    between atoms: _402  and  _405
REMARK  165  A    between atoms: _405  and  _406
REMARK  166  A    between atoms: _411  and  _413
REMARK  167  A    between atoms: _413  and  _414
REMARK  168  A    between atoms: _413  and  _416
REMARK  169  A    between atoms: _416  and  _417
REMARK  170  A    between atoms: _420  and  _422
REMARK  171  A    between atoms: _422  and  _423
REMARK  172  A    between atoms: _422  and  _425
REMARK  173  A    between atoms: _425  and  _426
REMARK  174  A    between atoms: _428  and  _430
REMARK  175  A    between atoms: _430  and  _431
REMARK  176  A    between atoms: _430  and  _433
REMARK  177  A    between atoms: _433  and  _434
REMARK  178  A    between atoms: _437  and  _439
REMARK  179  A    between atoms: _439  and  _440
REMARK  180  A    between atoms: _439  and  _442
REMARK  181  A    between atoms: _445  and  _447
REMARK  182  A    between atoms: _447  and  _448
REMARK  183  A    between atoms: _447  and  _450
REMARK  184  A    between atoms: _450  and  _451
REMARK  185  A    between atoms: _451  and  _452
REMARK  186  A    between atoms: _452  and  _453
REMARK  187  A    between atoms: _462  and  _464
REMARK  188  A    between atoms: _464  and  _465
REMARK  189  A    between atoms: _464  and  _467
REMARK  190  A    between atoms: _467  and  _468
REMARK  191  A    between atoms: _474  and  _476
REMARK  192  A    between atoms: _476  and  _477
REMARK  193  A    between atoms: _476  and  _479
REMARK  194  A    between atoms: _479  and  _480
REMARK                            x       y       z     vdW  Elec       q    Type
REMARK                         _______ _______ _______ _____ _____    ______ ____
ROOT
ATOM      1  C   THR A   4      43.617   6.723  98.232  0.00  0.00    +0.243 C 
ATOM      2  O   THR A   4      44.505   7.302  98.829  0.00  0.00    -0.273 OA
ATOM      3  N   ASN A   5      43.780   5.537  97.672  0.00  0.00    -0.297 N 
ATOM      4  H   ASN A   5      43.013   5.158  97.080  0.00  0.00    +0.150 HD
ENDROOT
BRANCH   3   5
ATOM      5  CA  ASN A   5      44.963   4.750  97.843  0.00  0.00    +0.158 C 
BRANCH   5   6
ATOM      6  C   ASN A   5      44.775   3.556  96.966  0.00  0.00    +0.241 C 
ATOM      7  O   ASN A   5      43.633   3.126  96.718  0.00  0.00    -0.273 OA
ATOM      8  N   MET A   6      45.900   3.026  96.503  0.00  0.00    -0.297 N 
ATOM      9  H   MET A   6      46.803   3.501  96.704  0.00  0.00    +0.150 HD
BRANCH   8  10
ATOM     10  CA  MET A   6      45.904   1.809  95.728  0.00  0.00    +0.149 C 
BRANCH  10  11
ATOM     11  C   MET A   6      45.975   0.667  96.723  0.00  0.00    +0.241 C 
ATOM     12  O   MET A   6      46.652   0.779  97.743  0.00  0.00    -0.273 OA
ATOM     13  N   CYS A   7      45.230  -0.403  96.464  0.00  0.00    -0.296 N 
ATOM     14  H   CYS A   7      44.560  -0.382  95.669  0.00  0.00    +0.150 HD
BRANCH  13  15
ATOM     15  CA  CYS A   7      45.342  -1.610  97.284  0.00  0.00    +0.160 C 
BRANCH  15  16
ATOM     16  C   CYS A   7      46.744  -2.204  97.066  0.00  0.00    +0.242 C 
ATOM     17  N   THR A   8      47.309  -2.797  98.117  0.00  0.00    -0.296 N 
ATOM     18  H   THR A   8      46.826  -2.766  99.037  0.00  0.00    +0.150 HD
ATOM     19  O   CYS A   7      47.286  -2.137  95.949  0.00  0.00    -0.273 OA
BRANCH  17  20
ATOM     20  CA  THR A   8      48.587  -3.487  98.008  0.00  0.00    +0.164 C 
BRANCH  20  21
ATOM     21  CB  THR A   8      49.198  -3.821  99.391  0.00  0.00    +0.136 C 
ATOM     22  CG2 THR A   8      50.702  -4.243  99.233  0.00  0.00    +0.034 C 
BRANCH  21  23
ATOM     23  OG1 THR A   8      49.116  -2.664 100.243  0.00  0.00    -0.382 OA
ATOM     24  HG1 THR A   8      49.507  -2.878 101.127  0.00  0.00    +0.210 HD
ENDBRANCH  21  23
ENDBRANCH  20  21
BRANCH  20  25
ATOM     25  C   THR A   8      48.488  -4.766  97.170  0.00  0.00    +0.229 C 
ATOM     26  O   THR A   8      47.761  -5.709  97.508  0.00  0.00    -0.286 OA
ENDBRANCH  20  25
ENDBRANCH  17  20
ENDBRANCH  15  16
BRANCH  15  27
ATOM     27  CB  CYS A   7      44.298  -2.631  96.860  0.00  0.00    +0.098 C 
ATOM     28  SG  CYS A   7      42.650  -2.148  97.274  0.00  0.00    -0.080 S 
ENDBRANCH  15  27
ENDBRANCH  13  15
ENDBRANCH  10  11
BRANCH  10  29
ATOM     29  CB  MET A   6      47.103   1.791  94.729  0.00  0.00    +0.041 C 
BRANCH  29  30
ATOM     30  CG  MET A   6      47.000   2.835  93.579  0.00  0.00    +0.060 C 
BRANCH  30  31
ATOM     31  SD  MET A   6      45.336   2.923  92.824  0.00  0.00    -0.139 S 
ATOM     32  CE  MET A   6      45.273   1.385  91.898  0.00  0.00    +0.069 C 
ENDBRANCH  30  31
ENDBRANCH  29  30
ENDBRANCH  10  29
ENDBRANCH   8  10
ENDBRANCH   5   6
BRANCH   5  33
ATOM     33  CB  ASN A   5      45.186   4.290  99.306  0.00  0.00    +0.114 C 
BRANCH  33  34
ATOM     34  CG  ASN A   5      44.010   3.470  99.860  0.00  0.00    +0.222 C 
ATOM     35  OD1 ASN A   5      42.894   4.017 100.100  0.00  0.00    -0.275 OA
ATOM     36  ND2 ASN A   5      44.249   2.165 100.082  0.00  0.00    -0.329 N 
ATOM     37 HD21 ASN A   5      43.499   1.557 100.468  0.00  0.00    +0.145 HD
ATOM     38 HD22 ASN A   5      45.184   1.764  99.868  0.00  0.00    +0.145 HD
ENDBRANCH  33  34
ENDBRANCH   5  33
ENDBRANCH   3   5
BRANCH   1  39
ATOM     39  CA  THR A   4      42.245   7.337  98.074  0.00  0.00    +0.176 C 
BRANCH  39  41
ATOM     40  C   ILE A   3      41.177   6.911  95.919  0.00  0.00    +0.241 C 
ATOM     41  N   THR A   4      41.435   6.508  97.167  0.00  0.00    -0.295 N 
ATOM     42  H   THR A   4      41.059   5.598  97.501  0.00  0.00    +0.150 HD
ATOM     43  O   ILE A   3      41.782   7.829  95.413  0.00  0.00    -0.273 OA
BRANCH  40  44
ATOM     44  CA  ILE A   3      40.080   6.187  95.151  0.00  0.00    +0.149 C 
BRANCH  44  47
ATOM     45  C   LEU A   2      38.116   7.418  95.961  0.00  0.00    +0.241 C 
ATOM     46  O   LEU A   2      38.148   6.897  97.088  0.00  0.00    -0.273 OA
ATOM     47  N   ILE A   3      38.996   7.130  94.982  0.00  0.00    -0.297 N 
ATOM     48  H   ILE A   3      38.891   7.607  94.064  0.00  0.00    +0.150 HD
BRANCH  45  49
ATOM     49  CA  LEU A   2      37.029   8.462  95.621  0.00  0.00    +0.149 C 
BRANCH  49  51
ATOM     50  C   SER A   1      35.198   7.022  94.928  0.00  0.00    +0.241 C 
ATOM     51  N   LEU A   2      35.743   7.823  95.850  0.00  0.00    -0.297 N 
ATOM     52  H   LEU A   2      35.239   7.991  96.744  0.00  0.00    +0.150 HD
ATOM     53  O   SER A   1      35.552   7.028  93.728  0.00  0.00    -0.274 OA
BRANCH  50  54
ATOM     54  CA  SER A   1      34.118   6.039  95.420  0.00  0.00    +0.174 C 
BRANCH  54  55
ATOM     55  N   SER A   1      32.946   6.159  94.569  0.00  0.00    -0.236 NA
ATOM     56  H   SER A   1      33.009   5.772  93.606  0.00  0.00    +0.142 HD
ENDBRANCH  54  55
BRANCH  54  57
ATOM     57  CB  SER A   1      34.702   4.624  95.311  0.00  0.00    +0.163 C 
BRANCH  57  58
ATOM     58  OG  SER A   1      33.848   3.600  95.784  0.00  0.00    -0.380 OA
ATOM     59  H   SER A   1      33.646   3.756  96.740  0.00  0.00    +0.211 HD
ENDBRANCH  57  58
ENDBRANCH  54  57
ENDBRANCH  50  54
ENDBRANCH  49  51
BRANCH  49  60
ATOM     60  CB  LEU A   2      37.183   9.701  96.516  0.00  0.00    +0.029 C 
BRANCH  60  61
ATOM     61  CG  LEU A   2      38.464  10.529  96.367  0.00  0.00    +0.002 C 
ATOM     62  CD2 LEU A   2      38.455  11.599  97.454  0.00  0.00    +0.000 C 
ATOM     63  CD1 LEU A   2      38.606  11.187  94.964  0.00  0.00    +0.000 C 
ENDBRANCH  60  61
ENDBRANCH  49  60
ENDBRANCH  45  49
ENDBRANCH  44  47
BRANCH  44  64
ATOM     64  CB  ILE A   3      40.610   5.690  93.760  0.00  0.00    +0.027 C 
ATOM     65  CG2 ILE A   3      41.843   4.795  93.915  0.00  0.00    +0.002 C 
BRANCH  64  66
ATOM     66  CG1 ILE A   3      39.481   5.043  92.946  0.00  0.00    +0.002 C 
ATOM     67  CD1 ILE A   3      38.783   3.789  93.627  0.00  0.00    +0.000 C 
ENDBRANCH  64  66
ENDBRANCH  44  64
ENDBRANCH  40  44
ENDBRANCH  39  41
BRANCH  39  68
ATOM     68  CB  THR A   4      41.560   7.495  99.452  0.00  0.00    +0.137 C 
ATOM     69  CG2 THR A   4      40.358   8.413  99.327  0.00  0.00    +0.034 C 
BRANCH  68  70
ATOM     70  OG1 THR A   4      41.111   6.207  99.917  0.00  0.00    -0.382 OA
ATOM     71  HG1 THR A   4      41.888   5.599 100.002  0.00  0.00    +0.210 HD
ENDBRANCH  68  70
ENDBRANCH  39  68
ENDBRANCH   1  39
TORSDOF 32
REMARK  Name = ../refined-set-2016/2p4s/2p4s_pocket.pdb
REMARK  194 active torsions:
REMARK  status: ('A' for Active; 'I' for Inactive)
REMARK    1  A    between atoms: _1  and  _3
REMARK    2  A    between atoms: _3  and  _4
REMARK    3  A    between atoms: _6  and  _8
REMARK    4  A    between atoms: _8  and  _9
REMARK    5  A    between atoms: _8  and  _11
REMARK    6  A    between atoms: _11  and  _12
REMARK    7  A    between atoms: _14  and  _16
REMARK    8  A    between atoms: _16  and  _17
REMARK    9  A    between atoms: _19  and  _21
REMARK   10  A    between atoms: _21  and  _22
REMARK   11  A    between atoms: _21  and  _24
REMARK   12  A    between atoms: _27  and  _29
REMARK   13  A    between atoms: _29  and  _30
REMARK   14  A    between atoms: _33  and  _35
REMARK   15  A    between atoms: _35  and  _36
REMARK   16  A    between atoms: _35  and  _38
REMARK   17  A    between atoms: _38  and  _39
REMARK   18  A    between atoms: _44  and  _46
REMARK   19  A    between atoms: _46  and  _47
REMARK   20  A    between atoms: _46  and  _49
REMARK   21  A    between atoms: _49  and  _50
REMARK   22  A    between atoms: _50  and  _51
REMARK   23  A    between atoms: _51  and  _52
REMARK   24  A    between atoms: _61  and  _63
REMARK   25  A    between atoms: _63  and  _64
REMARK   26  A    between atoms: _63  and  _66
REMARK   27  A    between atoms: _66  and  _67
REMARK   28  A    between atoms: _73  and  _75
REMARK   29  A    between atoms: _75  and  _76
REMARK   30  A    between atoms: _75  and  _78
REMARK   31  A    between atoms: _78  and  _79
REMARK   32  A    between atoms: _84  and  _86
REMARK   33  A    between atoms: _86  and  _87
REMARK   34  A    between atoms: _86  and  _89
REMARK   35  A    between atoms: _89  and  _90
REMARK   36  A    between atoms: _95  and  _97
REMARK   37  A    between atoms: _97  and  _98
REMARK   38  A    between atoms: _97  and  _100
REMARK   39  A    between atoms: _100  and  _101
REMARK   40  A    between atoms: _106  and  _107
REMARK   41  A    between atoms: _109  and  _111
REMARK   42  A    between atoms: _111  and  _112
REMARK   43  A    between atoms: _111  and  _114
REMARK   44  A    between atoms: _114  and  _115
REMARK   45  A    between atoms: _115  and  _116
REMARK   46  A    between atoms: _119  and  _121
REMARK   47  A    between atoms: _121  and  _122
REMARK   48  A    between atoms: _121  and  _124
REMARK   49  A    between atoms: _124  and  _125
REMARK   50  A    between atoms: _130  and  _132
REMARK   51  A    between atoms: _132  and  _133
REMARK   52  A    between atoms: _136  and  _138
REMARK   53  A    between atoms: _138  and  _139
REMARK   54  A    between atoms: _142  and  _144
REMARK   55  A    between atoms: _144  and  _145
REMARK   56  A    between atoms: _147  and  _149
REMARK   57  A    between atoms: _149  and  _150
REMARK   58  A    between atoms: _152  and  _154
REMARK   59  A    between atoms: _154  and  _155
REMARK   60  A    between atoms: _158  and  _160
REMARK   61  A    between atoms: _160  and  _161
REMARK   62  A    between atoms: _160  and  _163
REMARK   63  A    between atoms: _163  and  _164
REMARK   64  A    between atoms: _169  and  _170
REMARK   65  A    between atoms: _172  and  _174
REMARK   66  A    between atoms: _174  and  _175
REMARK   67  A    between atoms: _174  and  _177
REMARK   68  A    between atoms: _177  and  _178
REMARK   69  A    between atoms: _181  and  _183
REMARK   70  A    between atoms: _183  and  _184
REMARK   71  A    between atoms: _183  and  _186
REMARK   72  A    between atoms: _188  and  _190
REMARK   73  A    between atoms: _190  and  _191
REMARK   74  A    between atoms: _190  and  _193
REMARK   75  A    between atoms: _193  and  _194
REMARK   76  A    between atoms: _197  and  _199
REMARK   77  A    between atoms: _199  and  _200
REMARK   78  A    between atoms: _202  and  _204
REMARK   79  A    between atoms: _204  and  _205
REMARK   80  A    between atoms: _208  and  _209
REMARK   81  A    between atoms: _214  and  _216
REMARK   82  A    between atoms: _216  and  _217
REMARK   83  A    between atoms: _216  and  _219
REMARK   84  A    between atoms: _219  and  _220
REMARK   85  A    between atoms: _225  and  _227
REMARK   86  A    between atoms: _227  and  _228
REMARK   87  A    between atoms: _227  and  _230
REMARK   88  A    between atoms: _230  and  _231
REMARK   89  A    between atoms: _237  and  _239
REMARK   90  A    between atoms: _239  and  _240
REMARK   91  A    between atoms: _239  and  _242
REMARK   92  A    between atoms: _242  and  _243
REMARK   93  A    between atoms: _243  and  _244
REMARK   94  A    between atoms: _247  and  _249
REMARK   95  A    between atoms: _249  and  _250
REMARK   96  A    between atoms: _249  and  _252
REMARK   97  A    between atoms: _255  and  _257
REMARK   98  A    between atoms: _257  and  _258
REMARK   99  A    between atoms: _261  and  _263
REMARK  100  A    between atoms: _263  and  _264
REMARK  101  A    between atoms: _263  and  _266
REMARK  102  A    between atoms: _266  and  _267
REMARK  103  A    between atoms: _270  and  _272
REMARK  104  A    between atoms: _272  and  _273
REMARK  105  A    between atoms: _275  and  _277
REMARK  106  A    between atoms: _277  and  _278
REMARK  107  A    between atoms: _277  and  _280
REMARK  108  A    between atoms: _280  and  _281
REMARK  109  A    between atoms: _281  and  _282
REMARK  110  A    between atoms: _284  and  _286
REMARK  111  A    between atoms: _286  and  _287
REMARK  112  A    between atoms: _286  and  _289
REMARK  113  A    between atoms: _289  and  _290
REMARK  114  A    between atoms: _292  and  _294
REMARK  115  A    between atoms: _294  and  _295
REMARK  116  A    between atoms: _294  and  _297
REMARK  117  A    between atoms: _297  and  _298
REMARK  118  A    between atoms: _301  and  _303
REMARK  119  A    between atoms: _303  and  _304
REMARK  120  A    between atoms: _303  and  _306
REMARK  121  A    between atoms: _306  and  _307
REMARK  122  A    between atoms: _309  and  _311
REMARK  123  A    between atoms: _311  and  _312
REMARK  124  A    between atoms: _311  and  _314
REMARK  125  A    between atoms: _314  and  _315
REMARK  126  A    between atoms: _318  and  _320
REMARK  127  A    between atoms: _320  and  _321
REMARK  128  A    between atoms: _320  and  _323
REMARK  129  A    between atoms: _323  and  _324
REMARK  130  A    between atoms: _327  and  _329
REMARK  131  A    between atoms: _329  and  _330
REMARK  132  A    between atoms: _329  and  _332
REMARK  133  A    between atoms: _332  and  _333
REMARK  134  A    between atoms: _336  and  _338
REMARK  135  A    between atoms: _338  and  _339
REMARK  136  A    between atoms: _338  and  _341
REMARK  137  A    between atoms: _341  and  _342
REMARK  138  A    between atoms: _347  and  _349
REMARK  139  A    between atoms: _349  and  _350
REMARK  140  A    between atoms: _349  and  _352
REMARK  141  A    between atoms: _352  and  _353
REMARK  142  A    between atoms: _353  and  _354
REMARK  143  A    between atoms: _356  and  _358
REMARK  144  A    between atoms: _358  and  _359
REMARK  145  A    between atoms: _358  and  _361
REMARK  146  A    between atoms: _363  and  _365
REMARK  147  A    between atoms: _365  and  _366
REMARK  148  A    between atoms: _365  and  _368
REMARK  149  A    between atoms: _368  and  _369
REMARK  150  A    between atoms: _372  and  _374
REMARK  151  A    between atoms: _374  and  _375
REMARK  152  A    between atoms: _374  and  _377
REMARK  153  A    between atoms: _377  and  _378
REMARK  154  A    between atoms: _378  and  _379
REMARK  155  A    between atoms: _382  and  _384
REMARK  156  A    between atoms: _384  and  _385
REMARK  157  A    between atoms: _384  and  _387
REMARK  158  A    between atoms: _387  and  _388
REMARK  159  A    between atoms: _393  and  _395
REMARK  160  A    between atoms: _395  and  _396
REMARK  161  A    between atoms: _395  and  _398
REMARK  162  A    between atoms: _400  and  _402
REMARK  163  A    between atoms: _402  and  _403
REMARK  164  A    between atoms: _402  and  _405
REMARK  165  A    between atoms: _405  and  _406
REMARK  166  A    between atoms: _411  and  _413
REMARK  167  A    between atoms: _413  and  _414
REMARK  168  A    between atoms: _413  and  _416
REMARK  169  A    between atoms: _416  and  _417
REMARK  170  A    between atoms: _420  and  _422
REMARK  171  A    between atoms: _422  and  _423
REMARK  172  A    between atoms: _422  and  _425
REMARK  173  A    between atoms: _425  and  _426
REMARK  174  A    between atoms: _428  and  _430
REMARK  175  A    between atoms: _430  and  _431
REMARK  176  A    between atoms: _430  and  _433
REMARK  177  A    between atoms: _433  and  _434
REMARK  178  A    between atoms: _437  and  _439
REMARK  179  A    between atoms: _439  and  _440
REMARK  180  A    between atoms: _439  and  _442
REMARK  181  A    between atoms: _445  and  _447
REMARK  182  A    between atoms: _447  and  _448
REMARK  183  A    between atoms: _447  and  _450
REMARK  184  A    between atoms: _450  and  _451
REMARK  185  A    between atoms: _451  and  _452
REMARK  186  A    between atoms: _452  and  _453
REMARK  187  A    between atoms: _462  and  _464
REMARK  188  A    between atoms: _464  and  _465
REMARK  189  A    between atoms: _464  and  _467
REMARK  190  A    between atoms: _467  and  _468
REMARK  191  A    between atoms: _474  and  _476
REMARK  192  A    between atoms: _476  and  _477
REMARK  193  A    between atoms: _476  and  _479
REMARK  194  A    between atoms: _479  and  _480
REMARK                            x       y       z     vdW  Elec       q    Type
REMARK                         _______ _______ _______ _____ _____    ______ ____
ROOT
ATOM      1  CA  GLU A   1      52.538  -0.136 101.932  0.00  0.00    +0.134 C 
ENDROOT
BRANCH   1   2
ATOM      2  N   GLU A   1      53.907  -0.469 101.603  0.00  0.00    -0.239 NA
ATOM      3  H   GLU A   1      54.486  -0.977 102.302  0.00  0.00    +0.142 HD
ENDBRANCH   1   2
BRANCH   1   4
ATOM      4  C   GLU A   1      52.530   1.033 102.893  0.00  0.00    +0.224 C 
ATOM      5  O   GLU A   1      53.179   1.002 103.935  0.00  0.00    -0.287 OA
ENDBRANCH   1   4
BRANCH   1   6
ATOM      6  CB  GLU A   1      51.800  -1.342 102.519  0.00  0.00    +0.037 C 
BRANCH   6   7
ATOM      7  CG  GLU A   1      50.401  -1.039 103.036  0.00  0.00    +0.116 C 
BRANCH   7   8
ATOM      8  CD  GLU A   1      49.736  -2.270 103.614  0.00  0.00    +0.365 C 
ATOM      9  OE2 GLU A   1      49.868  -2.508 104.846  0.00  0.00    -0.246 OA
ATOM     10  OE1 GLU A   1      49.126  -3.032 102.824  0.00  0.00    -0.246 OA
ENDBRANCH   7   8
ENDBRANCH   6   7
ENDBRANCH   1   6
TORSDOF 5
REMARK  Name = ../refined-set-2016/2p4s/2p4s_pocket.pdb
REMARK  194 active torsions:
REMARK  status: ('A' for Active; 'I' for Inactive)
REMARK    1  A    between atoms: _1  and  _3
REMARK    2  A    between atoms: _3  and  _4
REMARK    3  A    between atoms: _6  and  _8
REMARK    4  A    between atoms: _8  and  _9
REMARK    5  A    between atoms: _8  and  _11
REMARK    6  A    between atoms: _11  and  _12
REMARK    7  A    between atoms: _14  and  _16
REMARK    8  A    between atoms: _16  and  _17
REMARK    9  A    between atoms: _19  and  _21
REMARK   10  A    between atoms: _21  and  _22
REMARK   11  A    between atoms: _21  and  _24
REMARK   12  A    between atoms: _27  and  _29
REMARK   13  A    between atoms: _29  and  _30
REMARK   14  A    between atoms: _33  and  _35
REMARK   15  A    between atoms: _35  and  _36
REMARK   16  A    between atoms: _35  and  _38
REMARK   17  A    between atoms: _38  and  _39
REMARK   18  A    between atoms: _44  and  _46
REMARK   19  A    between atoms: _46  and  _47
REMARK   20  A    between atoms: _46  and  _49
REMARK   21  A    between atoms: _49  and  _50
REMARK   22  A    between atoms: _50  and  _51
REMARK   23  A    between atoms: _51  and  _52
REMARK   24  A    between atoms: _61  and  _63
REMARK   25  A    between atoms: _63  and  _64
REMARK   26  A    between atoms: _63  and  _66
REMARK   27  A    between atoms: _66  and  _67
REMARK   28  A    between atoms: _73  and  _75
REMARK   29  A    between atoms: _75  and  _76
REMARK   30  A    between atoms: _75  and  _78
REMARK   31  A    between atoms: _78  and  _79
REMARK   32  A    between atoms: _84  and  _86
REMARK   33  A    between atoms: _86  and  _87
REMARK   34  A    between atoms: _86  and  _89
REMARK   35  A    between atoms: _89  and  _90
REMARK   36  A    between atoms: _95  and  _97
REMARK   37  A    between atoms: _97  and  _98
REMARK   38  A    between atoms: _97  and  _100
REMARK   39  A    between atoms: _100  and  _101
REMARK   40  A    between atoms: _106  and  _107
REMARK   41  A    between atoms: _109  and  _111
REMARK   42  A    between atoms: _111  and  _112
REMARK   43  A    between atoms: _111  and  _114
REMARK   44  A    between atoms: _114  and  _115
REMARK   45  A    between atoms: _115  and  _116
REMARK   46  A    between atoms: _119  and  _121
REMARK   47  A    between atoms: _121  and  _122
REMARK   48  A    between atoms: _121  and  _124
REMARK   49  A    between atoms: _124  and  _125
REMARK   50  A    between atoms: _130  and  _132
REMARK   51  A    between atoms: _132  and  _133
REMARK   52  A    between atoms: _136  and  _138
REMARK   53  A    between atoms: _138  and  _139
REMARK   54  A    between atoms: _142  and  _144
REMARK   55  A    between atoms: _144  and  _145
REMARK   56  A    between atoms: _147  and  _149
REMARK   57  A    between atoms: _149  and  _150
REMARK   58  A    between atoms: _152  and  _154
REMARK   59  A    between atoms: _154  and  _155
REMARK   60  A    between atoms: _158  and  _160
REMARK   61  A    between atoms: _160  and  _161
REMARK   62  A    between atoms: _160  and  _163
REMARK   63  A    between atoms: _163  and  _164
REMARK   64  A    between atoms: _169  and  _170
REMARK   65  A    between atoms: _172  and  _174
REMARK   66  A    between atoms: _174  and  _175
REMARK   67  A    between atoms: _174  and  _177
REMARK   68  A    between atoms: _177  and  _178
REMARK   69  A    between atoms: _181  and  _183
REMARK   70  A    between atoms: _183  and  _184
REMARK   71  A    between atoms: _183  and  _186
REMARK   72  A    between atoms: _188  and  _190
REMARK   73  A    between atoms: _190  and  _191
REMARK   74  A    between atoms: _190  and  _193
REMARK   75  A    between atoms: _193  and  _194
REMARK   76  A    between atoms: _197  and  _199
REMARK   77  A    between atoms: _199  and  _200
REMARK   78  A    between atoms: _202  and  _204
REMARK   79  A    between atoms: _204  and  _205
REMARK   80  A    between atoms: _208  and  _209
REMARK   81  A    between atoms: _214  and  _216
REMARK   82  A    between atoms: _216  and  _217
REMARK   83  A    between atoms: _216  and  _219
REMARK   84  A    between atoms: _219  and  _220
REMARK   85  A    between atoms: _225  and  _227
REMARK   86  A    between atoms: _227  and  _228
REMARK   87  A    between atoms: _227  and  _230
REMARK   88  A    between atoms: _230  and  _231
REMARK   89  A    between atoms: _237  and  _239
REMARK   90  A    between atoms: _239  and  _240
REMARK   91  A    between atoms: _239  and  _242
REMARK   92  A    between atoms: _242  and  _243
REMARK   93  A    between atoms: _243  and  _244
REMARK   94  A    between atoms: _247  and  _249
REMARK   95  A    between atoms: _249  and  _250
REMARK   96  A    between atoms: _249  and  _252
REMARK   97  A    between atoms: _255  and  _257
REMARK   98  A    between atoms: _257  and  _258
REMARK   99  A    between atoms: _261  and  _263
REMARK  100  A    between atoms: _263  and  _264
REMARK  101  A    between atoms: _263  and  _266
REMARK  102  A    between atoms: _266  and  _267
REMARK  103  A    between atoms: _270  and  _272
REMARK  104  A    between atoms: _272  and  _273
REMARK  105  A    between atoms: _275  and  _277
REMARK  106  A    between atoms: _277  and  _278
REMARK  107  A    between atoms: _277  and  _280
REMARK  108  A    between atoms: _280  and  _281
REMARK  109  A    between atoms: _281  and  _282
REMARK  110  A    between atoms: _284  and  _286
REMARK  111  A    between atoms: _286  and  _287
REMARK  112  A    between atoms: _286  and  _289
REMARK  113  A    between atoms: _289  and  _290
REMARK  114  A    between atoms: _292  and  _294
REMARK  115  A    between atoms: _294  and  _295
REMARK  116  A    between atoms: _294  and  _297
REMARK  117  A    between atoms: _297  and  _298
REMARK  118  A    between atoms: _301  and  _303
REMARK  119  A    between atoms: _303  and  _304
REMARK  120  A    between atoms: _303  and  _306
REMARK  121  A    between atoms: _306  and  _307
REMARK  122  A    between atoms: _309  and  _311
REMARK  123  A    between atoms: _311  and  _312
REMARK  124  A    between atoms: _311  and  _314
REMARK  125  A    between atoms: _314  and  _315
REMARK  126  A    between atoms: _318  and  _320
REMARK  127  A    between atoms: _320  and  _321
REMARK  128  A    between atoms: _320  and  _323
REMARK  129  A    between atoms: _323  and  _324
REMARK  130  A    between atoms: _327  and  _329
REMARK  131  A    between atoms: _329  and  _330
REMARK  132  A    between atoms: _329  and  _332
REMARK  133  A    between atoms: _332  and  _333
REMARK  134  A    between atoms: _336  and  _338
REMARK  135  A    between atoms: _338  and  _339
REMARK  136  A    between atoms: _338  and  _341
REMARK  137  A    between atoms: _341  and  _342
REMARK  138  A    between atoms: _347  and  _349
REMARK  139  A    between atoms: _349  and  _350
REMARK  140  A    between atoms: _349  and  _352
REMARK  141  A    between atoms: _352  and  _353
REMARK  142  A    between atoms: _353  and  _354
REMARK  143  A    between atoms: _356  and  _358
REMARK  144  A    between atoms: _358  and  _359
REMARK  145  A    between atoms: _358  and  _361
REMARK  146  A    between atoms: _363  and  _365
REMARK  147  A    between atoms: _365  and  _366
REMARK  148  A    between atoms: _365  and  _368
REMARK  149  A    between atoms: _368  and  _369
REMARK  150  A    between atoms: _372  and  _374
REMARK  151  A    between atoms: _374  and  _375
REMARK  152  A    between atoms: _374  and  _377
REMARK  153  A    between atoms: _377  and  _378
REMARK  154  A    between atoms: _378  and  _379
REMARK  155  A    between atoms: _382  and  _384
REMARK  156  A    between atoms: _384  and  _385
REMARK  157  A    between atoms: _384  and  _387
REMARK  158  A    between atoms: _387  and  _388
REMARK  159  A    between atoms: _393  and  _395
REMARK  160  A    between atoms: _395  and  _396
REMARK  161  A    between atoms: _395  and  _398
REMARK  162  A    between atoms: _400  and  _402
REMARK  163  A    between atoms: _402  and  _403
REMARK  164  A    between atoms: _402  and  _405
REMARK  165  A    between atoms: _405  and  _406
REMARK  166  A    between atoms: _411  and  _413
REMARK  167  A    between atoms: _413  and  _414
REMARK  168  A    between atoms: _413  and  _416
REMARK  169  A    between atoms: _416  and  _417
REMARK  170  A    between atoms: _420  and  _422
REMARK  171  A    between atoms: _422  and  _423
REMARK  172  A    between atoms: _422  and  _425
REMARK  173  A    between atoms: _425  and  _426
REMARK  174  A    between atoms: _428  and  _430
REMARK  175  A    between atoms: _430  and  _431
REMARK  176  A    between atoms: _430  and  _433
REMARK  177  A    between atoms: _433  and  _434
REMARK  178  A    between atoms: _437  and  _439
REMARK  179  A    between atoms: _439  and  _440
REMARK  180  A    between atoms: _439  and  _442
REMARK  181  A    between atoms: _445  and  _447
REMARK  182  A    between atoms: _447  and  _448
REMARK  183  A    between atoms: _447  and  _450
REMARK  184  A    between atoms: _450  and  _451
REMARK  185  A    between atoms: _451  and  _452
REMARK  186  A    between atoms: _452  and  _453
REMARK  187  A    between atoms: _462  and  _464
REMARK  188  A    between atoms: _464  and  _465
REMARK  189  A    between atoms: _464  and  _467
REMARK  190  A    between atoms: _467  and  _468
REMARK  191  A    between atoms: _474  and  _476
REMARK  192  A    between atoms: _476  and  _477
REMARK  193  A    between atoms: _476  and  _479
REMARK  194  A    between atoms: _479  and  _480
REMARK                            x       y       z     vdW  Elec       q    Type
REMARK                         _______ _______ _______ _____ _____    ______ ____
ROOT
ATOM      1  CA  ASP A   4      44.978  10.932 107.598  0.00  0.00    +0.160 C 
ENDROOT
BRANCH   1   2
ATOM      2  C   ASP A   4      45.248  11.278 106.130  0.00  0.00    +0.241 C 
ATOM      3  O   ASP A   4      44.661  12.228 105.621  0.00  0.00    -0.273 OA
ATOM      4  N   SER A   5      46.128  10.527 105.460  0.00  0.00    -0.295 N 
ATOM      5  H   SER A   5      46.653   9.789 105.971  0.00  0.00    +0.150 HD
BRANCH   4   6
ATOM      6  CA  SER A   5      46.380  10.714 104.007  0.00  0.00    +0.178 C 
BRANCH   6   7
ATOM      7  C   SER A   5      45.120  10.494 103.152  0.00  0.00    +0.243 C 
ATOM      8  N   ILE A   6      44.353   9.480 103.521  0.00  0.00    -0.297 N 
ATOM      9  H   ILE A   6      44.640   8.930 104.355  0.00  0.00    +0.150 HD
ATOM     10  O   SER A   5      44.871  11.225 102.198  0.00  0.00    -0.273 OA
BRANCH   8  11
ATOM     11  CA  ILE A   6      43.127   9.086 102.828  0.00  0.00    +0.149 C 
BRANCH  11  12
ATOM     12  C   ILE A   6      42.110  10.208 102.850  0.00  0.00    +0.241 C 
ATOM     13  N   VAL A   7      41.910  10.796 104.041  0.00  0.00    -0.298 N 
ATOM     14  H   VAL A   7      42.414  10.426 104.872  0.00  0.00    +0.150 HD
ATOM     15  O   ILE A   6      41.541  10.558 101.809  0.00  0.00    -0.273 OA
BRANCH  13  16
ATOM     16  CA  VAL A   7      41.023  11.920 104.212  0.00  0.00    +0.137 C 
BRANCH  16  17
ATOM     17  CB  VAL A   7      40.810  12.244 105.740  0.00  0.00    +0.026 C 
ATOM     18  CG2 VAL A   7      40.183  11.024 106.444  0.00  0.00    +0.002 C 
ATOM     19  CG1 VAL A   7      39.965  13.501 105.959  0.00  0.00    +0.002 C 
ENDBRANCH  16  17
BRANCH  16  20
ATOM     20  C   VAL A   7      41.605  13.102 103.437  0.00  0.00    +0.227 C 
ATOM     21  O   VAL A   7      40.869  13.799 102.777  0.00  0.00    -0.286 OA
ENDBRANCH  16  20
ENDBRANCH  13  16
ENDBRANCH  11  12
BRANCH  11  22
ATOM     22  CB  ILE A   6      42.582   7.717 103.420  0.00  0.00    +0.027 C 
ATOM     23  CG2 ILE A   6      41.084   7.519 103.174  0.00  0.00    +0.002 C 
BRANCH  22  24
ATOM     24  CG1 ILE A   6      43.446   6.534 102.886  0.00  0.00    +0.002 C 
ATOM     25  CD1 ILE A   6      43.184   5.173 103.573  0.00  0.00    +0.000 C 
ENDBRANCH  22  24
ENDBRANCH  11  22
ENDBRANCH   8  11
ENDBRANCH   6   7
BRANCH   6  26
ATOM     26  CB  SER A   5      47.456   9.753 103.491  0.00  0.00    +0.166 C 
BRANCH  26  27
ATOM     27  OG  SER A   5      48.637   9.870 104.256  0.00  0.00    -0.380 OA
ATOM     28  H   SER A   5      49.318   9.242 103.907  0.00  0.00    +0.211 HD
ENDBRANCH  26  27
ENDBRANCH   6  26
ENDBRANCH   4   6
ENDBRANCH   1   2
BRANCH   1  30
ATOM     29  C   HIS A   3      43.792   8.832 107.148  0.00  0.00    +0.241 C 
ATOM     30  N   ASP A   4      44.752   9.502 107.791  0.00  0.00    -0.297 N 
ATOM     31  H   ASP A   4      45.363   8.985 108.455  0.00  0.00    +0.150 HD
ATOM     32  O   HIS A   3      42.978   9.371 106.389  0.00  0.00    -0.273 OA
BRANCH  29  33
ATOM     33  CA  HIS A   3      43.727   7.315 107.380  0.00  0.00    +0.155 C 
BRANCH  33  35
ATOM     34  C   CYS A   2      45.824   6.770 106.282  0.00  0.00    +0.242 C 
ATOM     35  N   HIS A   3      45.020   6.650 107.346  0.00  0.00    -0.297 N 
ATOM     36  H   HIS A   3      45.324   6.075 108.157  0.00  0.00    +0.150 HD
ATOM     37  O   CYS A   2      45.535   7.447 105.287  0.00  0.00    -0.273 OA
BRANCH  34  38
ATOM     38  CA  CYS A   2      47.145   5.989 106.341  0.00  0.00    +0.160 C 
BRANCH  38  41
ATOM     39  C   HIS A   1      47.788   3.860 105.317  0.00  0.00    +0.239 C 
ATOM     40  O   HIS A   1      48.219   3.400 106.383  0.00  0.00    -0.274 OA
ATOM     41  N   CYS A   2      47.252   5.074 105.202  0.00  0.00    -0.296 N 
ATOM     42  H   CYS A   2      46.898   5.382 104.274  0.00  0.00    +0.150 HD
BRANCH  39  43
ATOM     43  CA  HIS A   1      47.881   3.027 104.056  0.00  0.00    +0.151 C 
BRANCH  43  44
ATOM     44  N   HIS A   1      49.305   2.723 103.858  0.00  0.00    -0.238 NA
ATOM     45  H   HIS A   1      49.653   1.764 104.062  0.00  0.00    +0.142 HD
ENDBRANCH  43  44
BRANCH  43  46
ATOM     46  CB  HIS A   1      47.046   1.748 104.241  0.00  0.00    +0.074 C 
BRANCH  46  47
ATOM     47  CG  HIS A   1      47.014   0.859 103.039  0.00  0.00    +0.082 A 
ATOM     48  CD2 HIS A   1      46.842  -0.482 102.930  0.00  0.00    +0.115 A 
ATOM     49  NE2 HIS A   1      46.859  -0.783 101.589  0.00  0.00    -0.221 NA
ATOM     50  CE1 HIS A   1      47.030   0.333 100.898  0.00  0.00    +0.199 A 
ATOM     51  ND1 HIS A   1      47.117   1.341 101.748  0.00  0.00    -0.227 NA
ENDBRANCH  46  47
ENDBRANCH  43  46
ENDBRANCH  39  43
ENDBRANCH  38  41
BRANCH  38  52
ATOM     52  CB  CYS A   2      48.377   6.919 106.395  0.00  0.00    +0.098 C 
ATOM     53  SG  CYS A   2      48.239   8.298 107.569  0.00  0.00    -0.080 S 
ENDBRANCH  38  52
ENDBRANCH  34  38
ENDBRANCH  33  35
BRANCH  33  54
ATOM     54  CB  HIS A   3      42.935   7.004 108.652  0.00  0.00    +0.076 C 
BRANCH  54  55
ATOM     55  CG  HIS A   3      41.559   7.613 108.653  0.00  0.00    +0.082 A 
ATOM     56  CD2 HIS A   3      40.999   8.576 109.432  0.00  0.00    +0.115 A 
ATOM     57  NE2 HIS A   3      39.704   8.747 109.003  0.00  0.00    -0.221 NA
ATOM     58  CE1 HIS A   3      39.481   7.935 107.983  0.00  0.00    +0.199 A 
ATOM     59  ND1 HIS A   3      40.591   7.256 107.742  0.00  0.00    -0.227 NA
ENDBRANCH  54  55
ENDBRANCH  33  54
ENDBRANCH  29  33
ENDBRANCH   1  30
BRANCH   1  60
ATOM     60  CB  ASP A   4      46.123  11.476 108.490  0.00  0.00    +0.143 C 
BRANCH  60  61
ATOM     61  CG  ASP A   4      45.733  11.592 109.995  0.00  0.00    +0.367 C 
ATOM     62  OD2 ASP A   4      46.677  11.659 110.849  0.00  0.00    -0.246 OA
ATOM     63  OD1 ASP A   4      44.502  11.614 110.337  0.00  0.00    -0.246 OA
ENDBRANCH  60  61
ENDBRANCH   1  60
TORSDOF 26
REMARK  Name = ../refined-set-2016/2p4s/2p4s_pocket.pdb
REMARK  194 active torsions:
REMARK  status: ('A' for Active; 'I' for Inactive)
REMARK    1  A    between atoms: _1  and  _3
REMARK    2  A    between atoms: _3  and  _4
REMARK    3  A    between atoms: _6  and  _8
REMARK    4  A    between atoms: _8  and  _9
REMARK    5  A    between atoms: _8  and  _11
REMARK    6  A    between atoms: _11  and  _12
REMARK    7  A    between atoms: _14  and  _16
REMARK    8  A    between atoms: _16  and  _17
REMARK    9  A    between atoms: _19  and  _21
REMARK   10  A    between atoms: _21  and  _22
REMARK   11  A    between atoms: _21  and  _24
REMARK   12  A    between atoms: _27  and  _29
REMARK   13  A    between atoms: _29  and  _30
REMARK   14  A    between atoms: _33  and  _35
REMARK   15  A    between atoms: _35  and  _36
REMARK   16  A    between atoms: _35  and  _38
REMARK   17  A    between atoms: _38  and  _39
REMARK   18  A    between atoms: _44  and  _46
REMARK   19  A    between atoms: _46  and  _47
REMARK   20  A    between atoms: _46  and  _49
REMARK   21  A    between atoms: _49  and  _50
REMARK   22  A    between atoms: _50  and  _51
REMARK   23  A    between atoms: _51  and  _52
REMARK   24  A    between atoms: _61  and  _63
REMARK   25  A    between atoms: _63  and  _64
REMARK   26  A    between atoms: _63  and  _66
REMARK   27  A    between atoms: _66  and  _67
REMARK   28  A    between atoms: _73  and  _75
REMARK   29  A    between atoms: _75  and  _76
REMARK   30  A    between atoms: _75  and  _78
REMARK   31  A    between atoms: _78  and  _79
REMARK   32  A    between atoms: _84  and  _86
REMARK   33  A    between atoms: _86  and  _87
REMARK   34  A    between atoms: _86  and  _89
REMARK   35  A    between atoms: _89  and  _90
REMARK   36  A    between atoms: _95  and  _97
REMARK   37  A    between atoms: _97  and  _98
REMARK   38  A    between atoms: _97  and  _100
REMARK   39  A    between atoms: _100  and  _101
REMARK   40  A    between atoms: _106  and  _107
REMARK   41  A    between atoms: _109  and  _111
REMARK   42  A    between atoms: _111  and  _112
REMARK   43  A    between atoms: _111  and  _114
REMARK   44  A    between atoms: _114  and  _115
REMARK   45  A    between atoms: _115  and  _116
REMARK   46  A    between atoms: _119  and  _121
REMARK   47  A    between atoms: _121  and  _122
REMARK   48  A    between atoms: _121  and  _124
REMARK   49  A    between atoms: _124  and  _125
REMARK   50  A    between atoms: _130  and  _132
REMARK   51  A    between atoms: _132  and  _133
REMARK   52  A    between atoms: _136  and  _138
REMARK   53  A    between atoms: _138  and  _139
REMARK   54  A    between atoms: _142  and  _144
REMARK   55  A    between atoms: _144  and  _145
REMARK   56  A    between atoms: _147  and  _149
REMARK   57  A    between atoms: _149  and  _150
REMARK   58  A    between atoms: _152  and  _154
REMARK   59  A    between atoms: _154  and  _155
REMARK   60  A    between atoms: _158  and  _160
REMARK   61  A    between atoms: _160  and  _161
REMARK   62  A    between atoms: _160  and  _163
REMARK   63  A    between atoms: _163  and  _164
REMARK   64  A    between atoms: _169  and  _170
REMARK   65  A    between atoms: _172  and  _174
REMARK   66  A    between atoms: _174  and  _175
REMARK   67  A    between atoms: _174  and  _177
REMARK   68  A    between atoms: _177  and  _178
REMARK   69  A    between atoms: _181  and  _183
REMARK   70  A    between atoms: _183  and  _184
REMARK   71  A    between atoms: _183  and  _186
REMARK   72  A    between atoms: _188  and  _190
REMARK   73  A    between atoms: _190  and  _191
REMARK   74  A    between atoms: _190  and  _193
REMARK   75  A    between atoms: _193  and  _194
REMARK   76  A    between atoms: _197  and  _199
REMARK   77  A    between atoms: _199  and  _200
REMARK   78  A    between atoms: _202  and  _204
REMARK   79  A    between atoms: _204  and  _205
REMARK   80  A    between atoms: _208  and  _209
REMARK   81  A    between atoms: _214  and  _216
REMARK   82  A    between atoms: _216  and  _217
REMARK   83  A    between atoms: _216  and  _219
REMARK   84  A    between atoms: _219  and  _220
REMARK   85  A    between atoms: _225  and  _227
REMARK   86  A    between atoms: _227  and  _228
REMARK   87  A    between atoms: _227  and  _230
REMARK   88  A    between atoms: _230  and  _231
REMARK   89  A    between atoms: _237  and  _239
REMARK   90  A    between atoms: _239  and  _240
REMARK   91  A    between atoms: _239  and  _242
REMARK   92  A    between atoms: _242  and  _243
REMARK   93  A    between atoms: _243  and  _244
REMARK   94  A    between atoms: _247  and  _249
REMARK   95  A    between atoms: _249  and  _250
REMARK   96  A    between atoms: _249  and  _252
REMARK   97  A    between atoms: _255  and  _257
REMARK   98  A    between atoms: _257  and  _258
REMARK   99  A    between atoms: _261  and  _263
REMARK  100  A    between atoms: _263  and  _264
REMARK  101  A    between atoms: _263  and  _266
REMARK  102  A    between atoms: _266  and  _267
REMARK  103  A    between atoms: _270  and  _272
REMARK  104  A    between atoms: _272  and  _273
REMARK  105  A    between atoms: _275  and  _277
REMARK  106  A    between atoms: _277  and  _278
REMARK  107  A    between atoms: _277  and  _280
REMARK  108  A    between atoms: _280  and  _281
REMARK  109  A    between atoms: _281  and  _282
REMARK  110  A    between atoms: _284  and  _286
REMARK  111  A    between atoms: _286  and  _287
REMARK  112  A    between atoms: _286  and  _289
REMARK  113  A    between atoms: _289  and  _290
REMARK  114  A    between atoms: _292  and  _294
REMARK  115  A    between atoms: _294  and  _295
REMARK  116  A    between atoms: _294  and  _297
REMARK  117  A    between atoms: _297  and  _298
REMARK  118  A    between atoms: _301  and  _303
REMARK  119  A    between atoms: _303  and  _304
REMARK  120  A    between atoms: _303  and  _306
REMARK  121  A    between atoms: _306  and  _307
REMARK  122  A    between atoms: _309  and  _311
REMARK  123  A    between atoms: _311  and  _312
REMARK  124  A    between atoms: _311  and  _314
REMARK  125  A    between atoms: _314  and  _315
REMARK  126  A    between atoms: _318  and  _320
REMARK  127  A    between atoms: _320  and  _321
REMARK  128  A    between atoms: _320  and  _323
REMARK  129  A    between atoms: _323  and  _324
REMARK  130  A    between atoms: _327  and  _329
REMARK  131  A    between atoms: _329  and  _330
REMARK  132  A    between atoms: _329  and  _332
REMARK  133  A    between atoms: _332  and  _333
REMARK  134  A    between atoms: _336  and  _338
REMARK  135  A    between atoms: _338  and  _339
REMARK  136  A    between atoms: _338  and  _341
REMARK  137  A    between atoms: _341  and  _342
REMARK  138  A    between atoms: _347  and  _349
REMARK  139  A    between atoms: _349  and  _350
REMARK  140  A    between atoms: _349  and  _352
REMARK  141  A    between atoms: _352  and  _353
REMARK  142  A    between atoms: _353  and  _354
REMARK  143  A    between atoms: _356  and  _358
REMARK  144  A    between atoms: _358  and  _359
REMARK  145  A    between atoms: _358  and  _361
REMARK  146  A    between atoms: _363  and  _365
REMARK  147  A    between atoms: _365  and  _366
REMARK  148  A    between atoms: _365  and  _368
REMARK  149  A    between atoms: _368  and  _369
REMARK  150  A    between atoms: _372  and  _374
REMARK  151  A    between atoms: _374  and  _375
REMARK  152  A    between atoms: _374  and  _377
REMARK  153  A    between atoms: _377  and  _378
REMARK  154  A    between atoms: _378  and  _379
REMARK  155  A    between atoms: _382  and  _384
REMARK  156  A    between atoms: _384  and  _385
REMARK  157  A    between atoms: _384  and  _387
REMARK  158  A    between atoms: _387  and  _388
REMARK  159  A    between atoms: _393  and  _395
REMARK  160  A    between atoms: _395  and  _396
REMARK  161  A    between atoms: _395  and  _398
REMARK  162  A    between atoms: _400  and  _402
REMARK  163  A    between atoms: _402  and  _403
REMARK  164  A    between atoms: _402  and  _405
REMARK  165  A    between atoms: _405  and  _406
REMARK  166  A    between atoms: _411  and  _413
REMARK  167  A    between atoms: _413  and  _414
REMARK  168  A    between atoms: _413  and  _416
REMARK  169  A    between atoms: _416  and  _417
REMARK  170  A    between atoms: _420  and  _422
REMARK  171  A    between atoms: _422  and  _423
REMARK  172  A    between atoms: _422  and  _425
REMARK  173  A    between atoms: _425  and  _426
REMARK  174  A    between atoms: _428  and  _430
REMARK  175  A    between atoms: _430  and  _431
REMARK  176  A    between atoms: _430  and  _433
REMARK  177  A    between atoms: _433  and  _434
REMARK  178  A    between atoms: _437  and  _439
REMARK  179  A    between atoms: _439  and  _440
REMARK  180  A    between atoms: _439  and  _442
REMARK  181  A    between atoms: _445  and  _447
REMARK  182  A    between atoms: _447  and  _448
REMARK  183  A    between atoms: _447  and  _450
REMARK  184  A    between atoms: _450  and  _451
REMARK  185  A    between atoms: _451  and  _452
REMARK  186  A    between atoms: _452  and  _453
REMARK  187  A    between atoms: _462  and  _464
REMARK  188  A    between atoms: _464  and  _465
REMARK  189  A    between atoms: _464  and  _467
REMARK  190  A    between atoms: _467  and  _468
REMARK  191  A    between atoms: _474  and  _476
REMARK  192  A    between atoms: _476  and  _477
REMARK  193  A    between atoms: _476  and  _479
REMARK  194  A    between atoms: _479  and  _480
REMARK                            x       y       z     vdW  Elec       q    Type
REMARK                         _______ _______ _______ _____ _____    ______ ____
ROOT
ATOM      1  CA  PHE A   2      42.958   1.447 111.230  0.00  0.00    +0.153 C 
ENDROOT
BRANCH   1   4
ATOM      2  C   ARG A   1      41.886   1.764 113.423  0.00  0.00    +0.238 C 
ATOM      3  O   ARG A   1      41.193   0.761 113.284  0.00  0.00    -0.274 OA
ATOM      4  N   PHE A   2      42.811   2.123 112.529  0.00  0.00    -0.297 N 
ATOM      5  H   PHE A   2      43.451   2.910 112.759  0.00  0.00    +0.150 HD
BRANCH   2   6
ATOM      6  CA  ARG A   1      41.709   2.661 114.690  0.00  0.00    +0.145 C 
BRANCH   6   7
ATOM      7  N   ARG A   1      42.986   2.992 115.313  0.00  0.00    -0.238 NA
ATOM      8  H   ARG A   1      43.173   3.985 115.559  0.00  0.00    +0.142 HD
ENDBRANCH   6   7
BRANCH   6   9
ATOM      9  CB  ARG A   1      40.886   3.947 114.388  0.00  0.00    +0.030 C 
BRANCH   9  10
ATOM     10  CG  ARG A   1      39.362   3.690 114.000  0.00  0.00    +0.045 C 
BRANCH  10  11
ATOM     11  CD  ARG A   1      39.051   2.246 114.271  0.00  0.00    +0.174 C 
BRANCH  11  12
ATOM     12  NE  ARG A   1      37.853   2.122 115.008  0.00  0.00    -0.265 N 
ATOM     13  CZ  ARG A   1      37.370   1.005 115.529  0.00  0.00    +0.342 C 
ATOM     14  NH2 ARG A   1      36.219   1.111 116.169  0.00  0.00    -0.292 N 
ATOM     15 HH21 ARG A   1      35.785   0.271 116.602  0.00  0.00    +0.255 HD
ATOM     16 HH22 ARG A   1      35.747   2.035 116.240  0.00  0.00    +0.255 HD
ATOM     17  NH1 ARG A   1      37.989  -0.178 115.450  0.00  0.00    -0.292 N 
ATOM     18 HH11 ARG A   1      37.557  -1.021 115.881  0.00  0.00    +0.255 HD
ATOM     19 HH12 ARG A   1      38.902  -0.255 114.958  0.00  0.00    +0.255 HD
ATOM     20  HE  ARG A   1      37.298   2.989 115.155  0.00  0.00    +0.259 HD
ENDBRANCH  11  12
ENDBRANCH  10  11
ENDBRANCH   9  10
ENDBRANCH   6   9
ENDBRANCH   2   6
ENDBRANCH   1   4
BRANCH   1  21
ATOM     21  C   PHE A   2      44.410   1.089 111.127  0.00  0.00    +0.241 C 
ATOM     22  O   PHE A   2      45.226   1.781 111.727  0.00  0.00    -0.273 OA
ATOM     23  N   PHE A   3      44.737   0.012 110.385  0.00  0.00    -0.298 N 
ATOM     24  H   PHE A   3      43.979  -0.581 109.991  0.00  0.00    +0.150 HD
BRANCH  23  25
ATOM     25  CA  PHE A   3      46.137  -0.346 110.118  0.00  0.00    +0.141 C 
BRANCH  25  26
ATOM     26  C   PHE A   3      46.200  -1.277 108.886  0.00  0.00    +0.227 C 
ATOM     27  O   PHE A   3      45.224  -1.960 108.560  0.00  0.00    -0.286 OA
ENDBRANCH  25  26
BRANCH  25  28
ATOM     28  CB  PHE A   3      46.837  -0.942 111.399  0.00  0.00    +0.054 C 
BRANCH  28  29
ATOM     29  CG  PHE A   3      46.206  -2.242 111.906  0.00  0.00    -0.020 A 
ATOM     30  CD2 PHE A   3      45.171  -2.216 112.851  0.00  0.00    -0.004 A 
ATOM     31  CE2 PHE A   3      44.560  -3.430 113.287  0.00  0.00    -0.000 A 
ATOM     32  CZ  PHE A   3      44.998  -4.682 112.771  0.00  0.00    -0.000 A 
ATOM     33  CE1 PHE A   3      46.036  -4.696 111.804  0.00  0.00    -0.000 A 
ATOM     34  CD1 PHE A   3      46.631  -3.490 111.399  0.00  0.00    -0.004 A 
ENDBRANCH  28  29
ENDBRANCH  25  28
ENDBRANCH  23  25
ENDBRANCH   1  21
BRANCH   1  35
ATOM     35  CB  PHE A   2      42.629   2.402 110.071  0.00  0.00    +0.055 C 
BRANCH  35  36
ATOM     36  CG  PHE A   2      41.282   3.039 110.173  0.00  0.00    -0.020 A 
ATOM     37  CD2 PHE A   2      41.162   4.376 110.513  0.00  0.00    -0.004 A 
ATOM     38  CE2 PHE A   2      39.915   4.973 110.572  0.00  0.00    -0.000 A 
ATOM     39  CZ  PHE A   2      38.785   4.224 110.353  0.00  0.00    -0.000 A 
ATOM     40  CE1 PHE A   2      38.881   2.869 110.045  0.00  0.00    -0.000 A 
ATOM     41  CD1 PHE A   2      40.113   2.289 109.920  0.00  0.00    -0.004 A 
ENDBRANCH  35  36
ENDBRANCH   1  35
TORSDOF 14
REMARK  Name = ../refined-set-2016/2p4s/2p4s_pocket.pdb
REMARK  194 active torsions:
REMARK  status: ('A' for Active; 'I' for Inactive)
REMARK    1  A    between atoms: _1  and  _3
REMARK    2  A    between atoms: _3  and  _4
REMARK    3  A    between atoms: _6  and  _8
REMARK    4  A    between atoms: _8  and  _9
REMARK    5  A    between atoms: _8  and  _11
REMARK    6  A    between atoms: _11  and  _12
REMARK    7  A    between atoms: _14  and  _16
REMARK    8  A    between atoms: _16  and  _17
REMARK    9  A    between atoms: _19  and  _21
REMARK   10  A    between atoms: _21  and  _22
REMARK   11  A    between atoms: _21  and  _24
REMARK   12  A    between atoms: _27  and  _29
REMARK   13  A    between atoms: _29  and  _30
REMARK   14  A    between atoms: _33  and  _35
REMARK   15  A    between atoms: _35  and  _36
REMARK   16  A    between atoms: _35  and  _38
REMARK   17  A    between atoms: _38  and  _39
REMARK   18  A    between atoms: _44  and  _46
REMARK   19  A    between atoms: _46  and  _47
REMARK   20  A    between atoms: _46  and  _49
REMARK   21  A    between atoms: _49  and  _50
REMARK   22  A    between atoms: _50  and  _51
REMARK   23  A    between atoms: _51  and  _52
REMARK   24  A    between atoms: _61  and  _63
REMARK   25  A    between atoms: _63  and  _64
REMARK   26  A    between atoms: _63  and  _66
REMARK   27  A    between atoms: _66  and  _67
REMARK   28  A    between atoms: _73  and  _75
REMARK   29  A    between atoms: _75  and  _76
REMARK   30  A    between atoms: _75  and  _78
REMARK   31  A    between atoms: _78  and  _79
REMARK   32  A    between atoms: _84  and  _86
REMARK   33  A    between atoms: _86  and  _87
REMARK   34  A    between atoms: _86  and  _89
REMARK   35  A    between atoms: _89  and  _90
REMARK   36  A    between atoms: _95  and  _97
REMARK   37  A    between atoms: _97  and  _98
REMARK   38  A    between atoms: _97  and  _100
REMARK   39  A    between atoms: _100  and  _101
REMARK   40  A    between atoms: _106  and  _107
REMARK   41  A    between atoms: _109  and  _111
REMARK   42  A    between atoms: _111  and  _112
REMARK   43  A    between atoms: _111  and  _114
REMARK   44  A    between atoms: _114  and  _115
REMARK   45  A    between atoms: _115  and  _116
REMARK   46  A    between atoms: _119  and  _121
REMARK   47  A    between atoms: _121  and  _122
REMARK   48  A    between atoms: _121  and  _124
REMARK   49  A    between atoms: _124  and  _125
REMARK   50  A    between atoms: _130  and  _132
REMARK   51  A    between atoms: _132  and  _133
REMARK   52  A    between atoms: _136  and  _138
REMARK   53  A    between atoms: _138  and  _139
REMARK   54  A    between atoms: _142  and  _144
REMARK   55  A    between atoms: _144  and  _145
REMARK   56  A    between atoms: _147  and  _149
REMARK   57  A    between atoms: _149  and  _150
REMARK   58  A    between atoms: _152  and  _154
REMARK   59  A    between atoms: _154  and  _155
REMARK   60  A    between atoms: _158  and  _160
REMARK   61  A    between atoms: _160  and  _161
REMARK   62  A    between atoms: _160  and  _163
REMARK   63  A    between atoms: _163  and  _164
REMARK   64  A    between atoms: _169  and  _170
REMARK   65  A    between atoms: _172  and  _174
REMARK   66  A    between atoms: _174  and  _175
REMARK   67  A    between atoms: _174  and  _177
REMARK   68  A    between atoms: _177  and  _178
REMARK   69  A    between atoms: _181  and  _183
REMARK   70  A    between atoms: _183  and  _184
REMARK   71  A    between atoms: _183  and  _186
REMARK   72  A    between atoms: _188  and  _190
REMARK   73  A    between atoms: _190  and  _191
REMARK   74  A    between atoms: _190  and  _193
REMARK   75  A    between atoms: _193  and  _194
REMARK   76  A    between atoms: _197  and  _199
REMARK   77  A    between atoms: _199  and  _200
REMARK   78  A    between atoms: _202  and  _204
REMARK   79  A    between atoms: _204  and  _205
REMARK   80  A    between atoms: _208  and  _209
REMARK   81  A    between atoms: _214  and  _216
REMARK   82  A    between atoms: _216  and  _217
REMARK   83  A    between atoms: _216  and  _219
REMARK   84  A    between atoms: _219  and  _220
REMARK   85  A    between atoms: _225  and  _227
REMARK   86  A    between atoms: _227  and  _228
REMARK   87  A    between atoms: _227  and  _230
REMARK   88  A    between atoms: _230  and  _231
REMARK   89  A    between atoms: _237  and  _239
REMARK   90  A    between atoms: _239  and  _240
REMARK   91  A    between atoms: _239  and  _242
REMARK   92  A    between atoms: _242  and  _243
REMARK   93  A    between atoms: _243  and  _244
REMARK   94  A    between atoms: _247  and  _249
REMARK   95  A    between atoms: _249  and  _250
REMARK   96  A    between atoms: _249  and  _252
REMARK   97  A    between atoms: _255  and  _257
REMARK   98  A    between atoms: _257  and  _258
REMARK   99  A    between atoms: _261  and  _263
REMARK  100  A    between atoms: _263  and  _264
REMARK  101  A    between atoms: _263  and  _266
REMARK  102  A    between atoms: _266  and  _267
REMARK  103  A    between atoms: _270  and  _272
REMARK  104  A    between atoms: _272  and  _273
REMARK  105  A    between atoms: _275  and  _277
REMARK  106  A    between atoms: _277  and  _278
REMARK  107  A    between atoms: _277  and  _280
REMARK  108  A    between atoms: _280  and  _281
REMARK  109  A    between atoms: _281  and  _282
REMARK  110  A    between atoms: _284  and  _286
REMARK  111  A    between atoms: _286  and  _287
REMARK  112  A    between atoms: _286  and  _289
REMARK  113  A    between atoms: _289  and  _290
REMARK  114  A    between atoms: _292  and  _294
REMARK  115  A    between atoms: _294  and  _295
REMARK  116  A    between atoms: _294  and  _297
REMARK  117  A    between atoms: _297  and  _298
REMARK  118  A    between atoms: _301  and  _303
REMARK  119  A    between atoms: _303  and  _304
REMARK  120  A    between atoms: _303  and  _306
REMARK  121  A    between atoms: _306  and  _307
REMARK  122  A    between atoms: _309  and  _311
REMARK  123  A    between atoms: _311  and  _312
REMARK  124  A    between atoms: _311  and  _314
REMARK  125  A    between atoms: _314  and  _315
REMARK  126  A    between atoms: _318  and  _320
REMARK  127  A    between atoms: _320  and  _321
REMARK  128  A    between atoms: _320  and  _323
REMARK  129  A    between atoms: _323  and  _324
REMARK  130  A    between atoms: _327  and  _329
REMARK  131  A    between atoms: _329  and  _330
REMARK  132  A    between atoms: _329  and  _332
REMARK  133  A    between atoms: _332  and  _333
REMARK  134  A    between atoms: _336  and  _338
REMARK  135  A    between atoms: _338  and  _339
REMARK  136  A    between atoms: _338  and  _341
REMARK  137  A    between atoms: _341  and  _342
REMARK  138  A    between atoms: _347  and  _349
REMARK  139  A    between atoms: _349  and  _350
REMARK  140  A    between atoms: _349  and  _352
REMARK  141  A    between atoms: _352  and  _353
REMARK  142  A    between atoms: _353  and  _354
REMARK  143  A    between atoms: _356  and  _358
REMARK  144  A    between atoms: _358  and  _359
REMARK  145  A    between atoms: _358  and  _361
REMARK  146  A    between atoms: _363  and  _365
REMARK  147  A    between atoms: _365  and  _366
REMARK  148  A    between atoms: _365  and  _368
REMARK  149  A    between atoms: _368  and  _369
REMARK  150  A    between atoms: _372  and  _374
REMARK  151  A    between atoms: _374  and  _375
REMARK  152  A    between atoms: _374  and  _377
REMARK  153  A    between atoms: _377  and  _378
REMARK  154  A    between atoms: _378  and  _379
REMARK  155  A    between atoms: _382  and  _384
REMARK  156  A    between atoms: _384  and  _385
REMARK  157  A    between atoms: _384  and  _387
REMARK  158  A    between atoms: _387  and  _388
REMARK  159  A    between atoms: _393  and  _395
REMARK  160  A    between atoms: _395  and  _396
REMARK  161  A    between atoms: _395  and  _398
REMARK  162  A    between atoms: _400  and  _402
REMARK  163  A    between atoms: _402  and  _403
REMARK  164  A    between atoms: _402  and  _405
REMARK  165  A    between atoms: _405  and  _406
REMARK  166  A    between atoms: _411  and  _413
REMARK  167  A    between atoms: _413  and  _414
REMARK  168  A    between atoms: _413  and  _416
REMARK  169  A    between atoms: _416  and  _417
REMARK  170  A    between atoms: _420  and  _422
REMARK  171  A    between atoms: _422  and  _423
REMARK  172  A    between atoms: _422  and  _425
REMARK  173  A    between atoms: _425  and  _426
REMARK  174  A    between atoms: _428  and  _430
REMARK  175  A    between atoms: _430  and  _431
REMARK  176  A    between atoms: _430  and  _433
REMARK  177  A    between atoms: _433  and  _434
REMARK  178  A    between atoms: _437  and  _439
REMARK  179  A    between atoms: _439  and  _440
REMARK  180  A    between atoms: _439  and  _442
REMARK  181  A    between atoms: _445  and  _447
REMARK  182  A    between atoms: _447  and  _448
REMARK  183  A    between atoms: _447  and  _450
REMARK  184  A    between atoms: _450  and  _451
REMARK  185  A    between atoms: _451  and  _452
REMARK  186  A    between atoms: _452  and  _453
REMARK  187  A    between atoms: _462  and  _464
REMARK  188  A    between atoms: _464  and  _465
REMARK  189  A    between atoms: _464  and  _467
REMARK  190  A    between atoms: _467  and  _468
REMARK  191  A    between atoms: _474  and  _476
REMARK  192  A    between atoms: _476  and  _477
REMARK  193  A    between atoms: _476  and  _479
REMARK  194  A    between atoms: _479  and  _480
REMARK                            x       y       z     vdW  Elec       q    Type
REMARK                         _______ _______ _______ _____ _____    ______ ____
ROOT
ATOM      1  O   HOH     1      32.294   7.687 112.125  0.00  0.00    +0.000 OA
ENDROOT
TORSDOF 0
REMARK  Name = ../refined-set-2016/2p4s/2p4s_pocket.pdb
REMARK  194 active torsions:
REMARK  status: ('A' for Active; 'I' for Inactive)
REMARK    1  A    between atoms: _1  and  _3
REMARK    2  A    between atoms: _3  and  _4
REMARK    3  A    between atoms: _6  and  _8
REMARK    4  A    between atoms: _8  and  _9
REMARK    5  A    between atoms: _8  and  _11
REMARK    6  A    between atoms: _11  and  _12
REMARK    7  A    between atoms: _14  and  _16
REMARK    8  A    between atoms: _16  and  _17
REMARK    9  A    between atoms: _19  and  _21
REMARK   10  A    between atoms: _21  and  _22
REMARK   11  A    between atoms: _21  and  _24
REMARK   12  A    between atoms: _27  and  _29
REMARK   13  A    between atoms: _29  and  _30
REMARK   14  A    between atoms: _33  and  _35
REMARK   15  A    between atoms: _35  and  _36
REMARK   16  A    between atoms: _35  and  _38
REMARK   17  A    between atoms: _38  and  _39
REMARK   18  A    between atoms: _44  and  _46
REMARK   19  A    between atoms: _46  and  _47
REMARK   20  A    between atoms: _46  and  _49
REMARK   21  A    between atoms: _49  and  _50
REMARK   22  A    between atoms: _50  and  _51
REMARK   23  A    between atoms: _51  and  _52
REMARK   24  A    between atoms: _61  and  _63
REMARK   25  A    between atoms: _63  and  _64
REMARK   26  A    between atoms: _63  and  _66
REMARK   27  A    between atoms: _66  and  _67
REMARK   28  A    between atoms: _73  and  _75
REMARK   29  A    between atoms: _75  and  _76
REMARK   30  A    between atoms: _75  and  _78
REMARK   31  A    between atoms: _78  and  _79
REMARK   32  A    between atoms: _84  and  _86
REMARK   33  A    between atoms: _86  and  _87
REMARK   34  A    between atoms: _86  and  _89
REMARK   35  A    between atoms: _89  and  _90
REMARK   36  A    between atoms: _95  and  _97
REMARK   37  A    between atoms: _97  and  _98
REMARK   38  A    between atoms: _97  and  _100
REMARK   39  A    between atoms: _100  and  _101
REMARK   40  A    between atoms: _106  and  _107
REMARK   41  A    between atoms: _109  and  _111
REMARK   42  A    between atoms: _111  and  _112
REMARK   43  A    between atoms: _111  and  _114
REMARK   44  A    between atoms: _114  and  _115
REMARK   45  A    between atoms: _115  and  _116
REMARK   46  A    between atoms: _119  and  _121
REMARK   47  A    between atoms: _121  and  _122
REMARK   48  A    between atoms: _121  and  _124
REMARK   49  A    between atoms: _124  and  _125
REMARK   50  A    between atoms: _130  and  _132
REMARK   51  A    between atoms: _132  and  _133
REMARK   52  A    between atoms: _136  and  _138
REMARK   53  A    between atoms: _138  and  _139
REMARK   54  A    between atoms: _142  and  _144
REMARK   55  A    between atoms: _144  and  _145
REMARK   56  A    between atoms: _147  and  _149
REMARK   57  A    between atoms: _149  and  _150
REMARK   58  A    between atoms: _152  and  _154
REMARK   59  A    between atoms: _154  and  _155
REMARK   60  A    between atoms: _158  and  _160
REMARK   61  A    between atoms: _160  and  _161
REMARK   62  A    between atoms: _160  and  _163
REMARK   63  A    between atoms: _163  and  _164
REMARK   64  A    between atoms: _169  and  _170
REMARK   65  A    between atoms: _172  and  _174
REMARK   66  A    between atoms: _174  and  _175
REMARK   67  A    between atoms: _174  and  _177
REMARK   68  A    between atoms: _177  and  _178
REMARK   69  A    between atoms: _181  and  _183
REMARK   70  A    between atoms: _183  and  _184
REMARK   71  A    between atoms: _183  and  _186
REMARK   72  A    between atoms: _188  and  _190
REMARK   73  A    between atoms: _190  and  _191
REMARK   74  A    between atoms: _190  and  _193
REMARK   75  A    between atoms: _193  and  _194
REMARK   76  A    between atoms: _197  and  _199
REMARK   77  A    between atoms: _199  and  _200
REMARK   78  A    between atoms: _202  and  _204
REMARK   79  A    between atoms: _204  and  _205
REMARK   80  A    between atoms: _208  and  _209
REMARK   81  A    between atoms: _214  and  _216
REMARK   82  A    between atoms: _216  and  _217
REMARK   83  A    between atoms: _216  and  _219
REMARK   84  A    between atoms: _219  and  _220
REMARK   85  A    between atoms: _225  and  _227
REMARK   86  A    between atoms: _227  and  _228
REMARK   87  A    between atoms: _227  and  _230
REMARK   88  A    between atoms: _230  and  _231
REMARK   89  A    between atoms: _237  and  _239
REMARK   90  A    between atoms: _239  and  _240
REMARK   91  A    between atoms: _239  and  _242
REMARK   92  A    between atoms: _242  and  _243
REMARK   93  A    between atoms: _243  and  _244
REMARK   94  A    between atoms: _247  and  _249
REMARK   95  A    between atoms: _249  and  _250
REMARK   96  A    between atoms: _249  and  _252
REMARK   97  A    between atoms: _255  and  _257
REMARK   98  A    between atoms: _257  and  _258
REMARK   99  A    between atoms: _261  and  _263
REMARK  100  A    between atoms: _263  and  _264
REMARK  101  A    between atoms: _263  and  _266
REMARK  102  A    between atoms: _266  and  _267
REMARK  103  A    between atoms: _270  and  _272
REMARK  104  A    between atoms: _272  and  _273
REMARK  105  A    between atoms: _275  and  _277
REMARK  106  A    between atoms: _277  and  _278
REMARK  107  A    between atoms: _277  and  _280
REMARK  108  A    between atoms: _280  and  _281
REMARK  109  A    between atoms: _281  and  _282
REMARK  110  A    between atoms: _284  and  _286
REMARK  111  A    between atoms: _286  and  _287
REMARK  112  A    between atoms: _286  and  _289
REMARK  113  A    between atoms: _289  and  _290
REMARK  114  A    between atoms: _292  and  _294
REMARK  115  A    between atoms: _294  and  _295
REMARK  116  A    between atoms: _294  and  _297
REMARK  117  A    between atoms: _297  and  _298
REMARK  118  A    between atoms: _301  and  _303
REMARK  119  A    between atoms: _303  and  _304
REMARK  120  A    between atoms: _303  and  _306
REMARK  121  A    between atoms: _306  and  _307
REMARK  122  A    between atoms: _309  and  _311
REMARK  123  A    between atoms: _311  and  _312
REMARK  124  A    between atoms: _311  and  _314
REMARK  125  A    between atoms: _314  and  _315
REMARK  126  A    between atoms: _318  and  _320
REMARK  127  A    between atoms: _320  and  _321
REMARK  128  A    between atoms: _320  and  _323
REMARK  129  A    between atoms: _323  and  _324
REMARK  130  A    between atoms: _327  and  _329
REMARK  131  A    between atoms: _329  and  _330
REMARK  132  A    between atoms: _329  and  _332
REMARK  133  A    between atoms: _332  and  _333
REMARK  134  A    between atoms: _336  and  _338
REMARK  135  A    between atoms: _338  and  _339
REMARK  136  A    between atoms: _338  and  _341
REMARK  137  A    between atoms: _341  and  _342
REMARK  138  A    between atoms: _347  and  _349
REMARK  139  A    between atoms: _349  and  _350
REMARK  140  A    between atoms: _349  and  _352
REMARK  141  A    between atoms: _352  and  _353
REMARK  142  A    between atoms: _353  and  _354
REMARK  143  A    between atoms: _356  and  _358
REMARK  144  A    between atoms: _358  and  _359
REMARK  145  A    between atoms: _358  and  _361
REMARK  146  A    between atoms: _363  and  _365
REMARK  147  A    between atoms: _365  and  _366
REMARK  148  A    between atoms: _365  and  _368
REMARK  149  A    between atoms: _368  and  _369
REMARK  150  A    between atoms: _372  and  _374
REMARK  151  A    between atoms: _374  and  _375
REMARK  152  A    between atoms: _374  and  _377
REMARK  153  A    between atoms: _377  and  _378
REMARK  154  A    between atoms: _378  and  _379
REMARK  155  A    between atoms: _382  and  _384
REMARK  156  A    between atoms: _384  and  _385
REMARK  157  A    between atoms: _384  and  _387
REMARK  158  A    between atoms: _387  and  _388
REMARK  159  A    between atoms: _393  and  _395
REMARK  160  A    between atoms: _395  and  _396
REMARK  161  A    between atoms: _395  and  _398
REMARK  162  A    between atoms: _400  and  _402
REMARK  163  A    between atoms: _402  and  _403
REMARK  164  A    between atoms: _402  and  _405
REMARK  165  A    between atoms: _405  and  _406
REMARK  166  A    between atoms: _411  and  _413
REMARK  167  A    between atoms: _413  and  _414
REMARK  168  A    between atoms: _413  and  _416
REMARK  169  A    between atoms: _416  and  _417
REMARK  170  A    between atoms: _420  and  _422
REMARK  171  A    between atoms: _422  and  _423
REMARK  172  A    between atoms: _422  and  _425
REMARK  173  A    between atoms: _425  and  _426
REMARK  174  A    between atoms: _428  and  _430
REMARK  175  A    between atoms: _430  and  _431
REMARK  176  A    between atoms: _430  and  _433
REMARK  177  A    between atoms: _433  and  _434
REMARK  178  A    between atoms: _437  and  _439
REMARK  179  A    between atoms: _439  and  _440
REMARK  180  A    between atoms: _439  and  _442
REMARK  181  A    between atoms: _445  and  _447
REMARK  182  A    between atoms: _447  and  _448
REMARK  183  A    between atoms: _447  and  _450
REMARK  184  A    between atoms: _450  and  _451
REMARK  185  A    between atoms: _451  and  _452
REMARK  186  A    between atoms: _452  and  _453
REMARK  187  A    between atoms: _462  and  _464
REMARK  188  A    between atoms: _464  and  _465
REMARK  189  A    between atoms: _464  and  _467
REMARK  190  A    between atoms: _467  and  _468
REMARK  191  A    between atoms: _474  and  _476
REMARK  192  A    between atoms: _476  and  _477
REMARK  193  A    between atoms: _476  and  _479
REMARK  194  A    between atoms: _479  and  _480
REMARK                            x       y       z     vdW  Elec       q    Type
REMARK                         _______ _______ _______ _____ _____    ______ ____
ROOT
ATOM      1  O   HOH     1      29.825   0.248 107.352  0.00  0.00    +0.000 OA
ENDROOT
TORSDOF 0
REMARK  Name = ../refined-set-2016/2p4s/2p4s_pocket.pdb
REMARK  194 active torsions:
REMARK  status: ('A' for Active; 'I' for Inactive)
REMARK    1  A    between atoms: _1  and  _3
REMARK    2  A    between atoms: _3  and  _4
REMARK    3  A    between atoms: _6  and  _8
REMARK    4  A    between atoms: _8  and  _9
REMARK    5  A    between atoms: _8  and  _11
REMARK    6  A    between atoms: _11  and  _12
REMARK    7  A    between atoms: _14  and  _16
REMARK    8  A    between atoms: _16  and  _17
REMARK    9  A    between atoms: _19  and  _21
REMARK   10  A    between atoms: _21  and  _22
REMARK   11  A    between atoms: _21  and  _24
REMARK   12  A    between atoms: _27  and  _29
REMARK   13  A    between atoms: _29  and  _30
REMARK   14  A    between atoms: _33  and  _35
REMARK   15  A    between atoms: _35  and  _36
REMARK   16  A    between atoms: _35  and  _38
REMARK   17  A    between atoms: _38  and  _39
REMARK   18  A    between atoms: _44  and  _46
REMARK   19  A    between atoms: _46  and  _47
REMARK   20  A    between atoms: _46  and  _49
REMARK   21  A    between atoms: _49  and  _50
REMARK   22  A    between atoms: _50  and  _51
REMARK   23  A    between atoms: _51  and  _52
REMARK   24  A    between atoms: _61  and  _63
REMARK   25  A    between atoms: _63  and  _64
REMARK   26  A    between atoms: _63  and  _66
REMARK   27  A    between atoms: _66  and  _67
REMARK   28  A    between atoms: _73  and  _75
REMARK   29  A    between atoms: _75  and  _76
REMARK   30  A    between atoms: _75  and  _78
REMARK   31  A    between atoms: _78  and  _79
REMARK   32  A    between atoms: _84  and  _86
REMARK   33  A    between atoms: _86  and  _87
REMARK   34  A    between atoms: _86  and  _89
REMARK   35  A    between atoms: _89  and  _90
REMARK   36  A    between atoms: _95  and  _97
REMARK   37  A    between atoms: _97  and  _98
REMARK   38  A    between atoms: _97  and  _100
REMARK   39  A    between atoms: _100  and  _101
REMARK   40  A    between atoms: _106  and  _107
REMARK   41  A    between atoms: _109  and  _111
REMARK   42  A    between atoms: _111  and  _112
REMARK   43  A    between atoms: _111  and  _114
REMARK   44  A    between atoms: _114  and  _115
REMARK   45  A    between atoms: _115  and  _116
REMARK   46  A    between atoms: _119  and  _121
REMARK   47  A    between atoms: _121  and  _122
REMARK   48  A    between atoms: _121  and  _124
REMARK   49  A    between atoms: _124  and  _125
REMARK   50  A    between atoms: _130  and  _132
REMARK   51  A    between atoms: _132  and  _133
REMARK   52  A    between atoms: _136  and  _138
REMARK   53  A    between atoms: _138  and  _139
REMARK   54  A    between atoms: _142  and  _144
REMARK   55  A    between atoms: _144  and  _145
REMARK   56  A    between atoms: _147  and  _149
REMARK   57  A    between atoms: _149  and  _150
REMARK   58  A    between atoms: _152  and  _154
REMARK   59  A    between atoms: _154  and  _155
REMARK   60  A    between atoms: _158  and  _160
REMARK   61  A    between atoms: _160  and  _161
REMARK   62  A    between atoms: _160  and  _163
REMARK   63  A    between atoms: _163  and  _164
REMARK   64  A    between atoms: _169  and  _170
REMARK   65  A    between atoms: _172  and  _174
REMARK   66  A    between atoms: _174  and  _175
REMARK   67  A    between atoms: _174  and  _177
REMARK   68  A    between atoms: _177  and  _178
REMARK   69  A    between atoms: _181  and  _183
REMARK   70  A    between atoms: _183  and  _184
REMARK   71  A    between atoms: _183  and  _186
REMARK   72  A    between atoms: _188  and  _190
REMARK   73  A    between atoms: _190  and  _191
REMARK   74  A    between atoms: _190  and  _193
REMARK   75  A    between atoms: _193  and  _194
REMARK   76  A    between atoms: _197  and  _199
REMARK   77  A    between atoms: _199  and  _200
REMARK   78  A    between atoms: _202  and  _204
REMARK   79  A    between atoms: _204  and  _205
REMARK   80  A    between atoms: _208  and  _209
REMARK   81  A    between atoms: _214  and  _216
REMARK   82  A    between atoms: _216  and  _217
REMARK   83  A    between atoms: _216  and  _219
REMARK   84  A    between atoms: _219  and  _220
REMARK   85  A    between atoms: _225  and  _227
REMARK   86  A    between atoms: _227  and  _228
REMARK   87  A    between atoms: _227  and  _230
REMARK   88  A    between atoms: _230  and  _231
REMARK   89  A    between atoms: _237  and  _239
REMARK   90  A    between atoms: _239  and  _240
REMARK   91  A    between atoms: _239  and  _242
REMARK   92  A    between atoms: _242  and  _243
REMARK   93  A    between atoms: _243  and  _244
REMARK   94  A    between atoms: _247  and  _249
REMARK   95  A    between atoms: _249  and  _250
REMARK   96  A    between atoms: _249  and  _252
REMARK   97  A    between atoms: _255  and  _257
REMARK   98  A    between atoms: _257  and  _258
REMARK   99  A    between atoms: _261  and  _263
REMARK  100  A    between atoms: _263  and  _264
REMARK  101  A    between atoms: _263  and  _266
REMARK  102  A    between atoms: _266  and  _267
REMARK  103  A    between atoms: _270  and  _272
REMARK  104  A    between atoms: _272  and  _273
REMARK  105  A    between atoms: _275  and  _277
REMARK  106  A    between atoms: _277  and  _278
REMARK  107  A    between atoms: _277  and  _280
REMARK  108  A    between atoms: _280  and  _281
REMARK  109  A    between atoms: _281  and  _282
REMARK  110  A    between atoms: _284  and  _286
REMARK  111  A    between atoms: _286  and  _287
REMARK  112  A    between atoms: _286  and  _289
REMARK  113  A    between atoms: _289  and  _290
REMARK  114  A    between atoms: _292  and  _294
REMARK  115  A    between atoms: _294  and  _295
REMARK  116  A    between atoms: _294  and  _297
REMARK  117  A    between atoms: _297  and  _298
REMARK  118  A    between atoms: _301  and  _303
REMARK  119  A    between atoms: _303  and  _304
REMARK  120  A    between atoms: _303  and  _306
REMARK  121  A    between atoms: _306  and  _307
REMARK  122  A    between atoms: _309  and  _311
REMARK  123  A    between atoms: _311  and  _312
REMARK  124  A    between atoms: _311  and  _314
REMARK  125  A    between atoms: _314  and  _315
REMARK  126  A    between atoms: _318  and  _320
REMARK  127  A    between atoms: _320  and  _321
REMARK  128  A    between atoms: _320  and  _323
REMARK  129  A    between atoms: _323  and  _324
REMARK  130  A    between atoms: _327  and  _329
REMARK  131  A    between atoms: _329  and  _330
REMARK  132  A    between atoms: _329  and  _332
REMARK  133  A    between atoms: _332  and  _333
REMARK  134  A    between atoms: _336  and  _338
REMARK  135  A    between atoms: _338  and  _339
REMARK  136  A    between atoms: _338  and  _341
REMARK  137  A    between atoms: _341  and  _342
REMARK  138  A    between atoms: _347  and  _349
REMARK  139  A    between atoms: _349  and  _350
REMARK  140  A    between atoms: _349  and  _352
REMARK  141  A    between atoms: _352  and  _353
REMARK  142  A    between atoms: _353  and  _354
REMARK  143  A    between atoms: _356  and  _358
REMARK  144  A    between atoms: _358  and  _359
REMARK  145  A    between atoms: _358  and  _361
REMARK  146  A    between atoms: _363  and  _365
REMARK  147  A    between atoms: _365  and  _366
REMARK  148  A    between atoms: _365  and  _368
REMARK  149  A    between atoms: _368  and  _369
REMARK  150  A    between atoms: _372  and  _374
REMARK  151  A    between atoms: _374  and  _375
REMARK  152  A    between atoms: _374  and  _377
REMARK  153  A    between atoms: _377  and  _378
REMARK  154  A    between atoms: _378  and  _379
REMARK  155  A    between atoms: _382  and  _384
REMARK  156  A    between atoms: _384  and  _385
REMARK  157  A    between atoms: _384  and  _387
REMARK  158  A    between atoms: _387  and  _388
REMARK  159  A    between atoms: _393  and  _395
REMARK  160  A    between atoms: _395  and  _396
REMARK  161  A    between atoms: _395  and  _398
REMARK  162  A    between atoms: _400  and  _402
REMARK  163  A    between atoms: _402  and  _403
REMARK  164  A    between atoms: _402  and  _405
REMARK  165  A    between atoms: _405  and  _406
REMARK  166  A    between atoms: _411  and  _413
REMARK  167  A    between atoms: _413  and  _414
REMARK  168  A    between atoms: _413  and  _416
REMARK  169  A    between atoms: _416  and  _417
REMARK  170  A    between atoms: _420  and  _422
REMARK  171  A    between atoms: _422  and  _423
REMARK  172  A    between atoms: _422  and  _425
REMARK  173  A    between atoms: _425  and  _426
REMARK  174  A    between atoms: _428  and  _430
REMARK  175  A    between atoms: _430  and  _431
REMARK  176  A    between atoms: _430  and  _433
REMARK  177  A    between atoms: _433  and  _434
REMARK  178  A    between atoms: _437  and  _439
REMARK  179  A    between atoms: _439  and  _440
REMARK  180  A    between atoms: _439  and  _442
REMARK  181  A    between atoms: _445  and  _447
REMARK  182  A    between atoms: _447  and  _448
REMARK  183  A    between atoms: _447  and  _450
REMARK  184  A    between atoms: _450  and  _451
REMARK  185  A    between atoms: _451  and  _452
REMARK  186  A    between atoms: _452  and  _453
REMARK  187  A    between atoms: _462  and  _464
REMARK  188  A    between atoms: _464  and  _465
REMARK  189  A    between atoms: _464  and  _467
REMARK  190  A    between atoms: _467  and  _468
REMARK  191  A    between atoms: _474  and  _476
REMARK  192  A    between atoms: _476  and  _477
REMARK  193  A    between atoms: _476  and  _479
REMARK  194  A    between atoms: _479  and  _480
REMARK                            x       y       z     vdW  Elec       q    Type
REMARK                         _______ _______ _______ _____ _____    ______ ____
ROOT
ATOM      1  O   HOH     1      34.214   2.824 101.847  0.00  0.00    +0.000 OA
ENDROOT
TORSDOF 0
REMARK  Name = ../refined-set-2016/2p4s/2p4s_pocket.pdb
REMARK  194 active torsions:
REMARK  status: ('A' for Active; 'I' for Inactive)
REMARK    1  A    between atoms: _1  and  _3
REMARK    2  A    between atoms: _3  and  _4
REMARK    3  A    between atoms: _6  and  _8
REMARK    4  A    between atoms: _8  and  _9
REMARK    5  A    between atoms: _8  and  _11
REMARK    6  A    between atoms: _11  and  _12
REMARK    7  A    between atoms: _14  and  _16
REMARK    8  A    between atoms: _16  and  _17
REMARK    9  A    between atoms: _19  and  _21
REMARK   10  A    between atoms: _21  and  _22
REMARK   11  A    between atoms: _21  and  _24
REMARK   12  A    between atoms: _27  and  _29
REMARK   13  A    between atoms: _29  and  _30
REMARK   14  A    between atoms: _33  and  _35
REMARK   15  A    between atoms: _35  and  _36
REMARK   16  A    between atoms: _35  and  _38
REMARK   17  A    between atoms: _38  and  _39
REMARK   18  A    between atoms: _44  and  _46
REMARK   19  A    between atoms: _46  and  _47
REMARK   20  A    between atoms: _46  and  _49
REMARK   21  A    between atoms: _49  and  _50
REMARK   22  A    between atoms: _50  and  _51
REMARK   23  A    between atoms: _51  and  _52
REMARK   24  A    between atoms: _61  and  _63
REMARK   25  A    between atoms: _63  and  _64
REMARK   26  A    between atoms: _63  and  _66
REMARK   27  A    between atoms: _66  and  _67
REMARK   28  A    between atoms: _73  and  _75
REMARK   29  A    between atoms: _75  and  _76
REMARK   30  A    between atoms: _75  and  _78
REMARK   31  A    between atoms: _78  and  _79
REMARK   32  A    between atoms: _84  and  _86
REMARK   33  A    between atoms: _86  and  _87
REMARK   34  A    between atoms: _86  and  _89
REMARK   35  A    between atoms: _89  and  _90
REMARK   36  A    between atoms: _95  and  _97
REMARK   37  A    between atoms: _97  and  _98
REMARK   38  A    between atoms: _97  and  _100
REMARK   39  A    between atoms: _100  and  _101
REMARK   40  A    between atoms: _106  and  _107
REMARK   41  A    between atoms: _109  and  _111
REMARK   42  A    between atoms: _111  and  _112
REMARK   43  A    between atoms: _111  and  _114
REMARK   44  A    between atoms: _114  and  _115
REMARK   45  A    between atoms: _115  and  _116
REMARK   46  A    between atoms: _119  and  _121
REMARK   47  A    between atoms: _121  and  _122
REMARK   48  A    between atoms: _121  and  _124
REMARK   49  A    between atoms: _124  and  _125
REMARK   50  A    between atoms: _130  and  _132
REMARK   51  A    between atoms: _132  and  _133
REMARK   52  A    between atoms: _136  and  _138
REMARK   53  A    between atoms: _138  and  _139
REMARK   54  A    between atoms: _142  and  _144
REMARK   55  A    between atoms: _144  and  _145
REMARK   56  A    between atoms: _147  and  _149
REMARK   57  A    between atoms: _149  and  _150
REMARK   58  A    between atoms: _152  and  _154
REMARK   59  A    between atoms: _154  and  _155
REMARK   60  A    between atoms: _158  and  _160
REMARK   61  A    between atoms: _160  and  _161
REMARK   62  A    between atoms: _160  and  _163
REMARK   63  A    between atoms: _163  and  _164
REMARK   64  A    between atoms: _169  and  _170
REMARK   65  A    between atoms: _172  and  _174
REMARK   66  A    between atoms: _174  and  _175
REMARK   67  A    between atoms: _174  and  _177
REMARK   68  A    between atoms: _177  and  _178
REMARK   69  A    between atoms: _181  and  _183
REMARK   70  A    between atoms: _183  and  _184
REMARK   71  A    between atoms: _183  and  _186
REMARK   72  A    between atoms: _188  and  _190
REMARK   73  A    between atoms: _190  and  _191
REMARK   74  A    between atoms: _190  and  _193
REMARK   75  A    between atoms: _193  and  _194
REMARK   76  A    between atoms: _197  and  _199
REMARK   77  A    between atoms: _199  and  _200
REMARK   78  A    between atoms: _202  and  _204
REMARK   79  A    between atoms: _204  and  _205
REMARK   80  A    between atoms: _208  and  _209
REMARK   81  A    between atoms: _214  and  _216
REMARK   82  A    between atoms: _216  and  _217
REMARK   83  A    between atoms: _216  and  _219
REMARK   84  A    between atoms: _219  and  _220
REMARK   85  A    between atoms: _225  and  _227
REMARK   86  A    between atoms: _227  and  _228
REMARK   87  A    between atoms: _227  and  _230
REMARK   88  A    between atoms: _230  and  _231
REMARK   89  A    between atoms: _237  and  _239
REMARK   90  A    between atoms: _239  and  _240
REMARK   91  A    between atoms: _239  and  _242
REMARK   92  A    between atoms: _242  and  _243
REMARK   93  A    between atoms: _243  and  _244
REMARK   94  A    between atoms: _247  and  _249
REMARK   95  A    between atoms: _249  and  _250
REMARK   96  A    between atoms: _249  and  _252
REMARK   97  A    between atoms: _255  and  _257
REMARK   98  A    between atoms: _257  and  _258
REMARK   99  A    between atoms: _261  and  _263
REMARK  100  A    between atoms: _263  and  _264
REMARK  101  A    between atoms: _263  and  _266
REMARK  102  A    between atoms: _266  and  _267
REMARK  103  A    between atoms: _270  and  _272
REMARK  104  A    between atoms: _272  and  _273
REMARK  105  A    between atoms: _275  and  _277
REMARK  106  A    between atoms: _277  and  _278
REMARK  107  A    between atoms: _277  and  _280
REMARK  108  A    between atoms: _280  and  _281
REMARK  109  A    between atoms: _281  and  _282
REMARK  110  A    between atoms: _284  and  _286
REMARK  111  A    between atoms: _286  and  _287
REMARK  112  A    between atoms: _286  and  _289
REMARK  113  A    between atoms: _289  and  _290
REMARK  114  A    between atoms: _292  and  _294
REMARK  115  A    between atoms: _294  and  _295
REMARK  116  A    between atoms: _294  and  _297
REMARK  117  A    between atoms: _297  and  _298
REMARK  118  A    between atoms: _301  and  _303
REMARK  119  A    between atoms: _303  and  _304
REMARK  120  A    between atoms: _303  and  _306
REMARK  121  A    between atoms: _306  and  _307
REMARK  122  A    between atoms: _309  and  _311
REMARK  123  A    between atoms: _311  and  _312
REMARK  124  A    between atoms: _311  and  _314
REMARK  125  A    between atoms: _314  and  _315
REMARK  126  A    between atoms: _318  and  _320
REMARK  127  A    between atoms: _320  and  _321
REMARK  128  A    between atoms: _320  and  _323
REMARK  129  A    between atoms: _323  and  _324
REMARK  130  A    between atoms: _327  and  _329
REMARK  131  A    between atoms: _329  and  _330
REMARK  132  A    between atoms: _329  and  _332
REMARK  133  A    between atoms: _332  and  _333
REMARK  134  A    between atoms: _336  and  _338
REMARK  135  A    between atoms: _338  and  _339
REMARK  136  A    between atoms: _338  and  _341
REMARK  137  A    between atoms: _341  and  _342
REMARK  138  A    between atoms: _347  and  _349
REMARK  139  A    between atoms: _349  and  _350
REMARK  140  A    between atoms: _349  and  _352
REMARK  141  A    between atoms: _352  and  _353
REMARK  142  A    between atoms: _353  and  _354
REMARK  143  A    between atoms: _356  and  _358
REMARK  144  A    between atoms: _358  and  _359
REMARK  145  A    between atoms: _358  and  _361
REMARK  146  A    between atoms: _363  and  _365
REMARK  147  A    between atoms: _365  and  _366
REMARK  148  A    between atoms: _365  and  _368
REMARK  149  A    between atoms: _368  and  _369
REMARK  150  A    between atoms: _372  and  _374
REMARK  151  A    between atoms: _374  and  _375
REMARK  152  A    between atoms: _374  and  _377
REMARK  153  A    between atoms: _377  and  _378
REMARK  154  A    between atoms: _378  and  _379
REMARK  155  A    between atoms: _382  and  _384
REMARK  156  A    between atoms: _384  and  _385
REMARK  157  A    between atoms: _384  and  _387
REMARK  158  A    between atoms: _387  and  _388
REMARK  159  A    between atoms: _393  and  _395
REMARK  160  A    between atoms: _395  and  _396
REMARK  161  A    between atoms: _395  and  _398
REMARK  162  A    between atoms: _400  and  _402
REMARK  163  A    between atoms: _402  and  _403
REMARK  164  A    between atoms: _402  and  _405
REMARK  165  A    between atoms: _405  and  _406
REMARK  166  A    between atoms: _411  and  _413
REMARK  167  A    between atoms: _413  and  _414
REMARK  168  A    between atoms: _413  and  _416
REMARK  169  A    between atoms: _416  and  _417
REMARK  170  A    between atoms: _420  and  _422
REMARK  171  A    between atoms: _422  and  _423
REMARK  172  A    between atoms: _422  and  _425
REMARK  173  A    between atoms: _425  and  _426
REMARK  174  A    between atoms: _428  and  _430
REMARK  175  A    between atoms: _430  and  _431
REMARK  176  A    between atoms: _430  and  _433
REMARK  177  A    between atoms: _433  and  _434
REMARK  178  A    between atoms: _437  and  _439
REMARK  179  A    between atoms: _439  and  _440
REMARK  180  A    between atoms: _439  and  _442
REMARK  181  A    between atoms: _445  and  _447
REMARK  182  A    between atoms: _447  and  _448
REMARK  183  A    between atoms: _447  and  _450
REMARK  184  A    between atoms: _450  and  _451
REMARK  185  A    between atoms: _451  and  _452
REMARK  186  A    between atoms: _452  and  _453
REMARK  187  A    between atoms: _462  and  _464
REMARK  188  A    between atoms: _464  and  _465
REMARK  189  A    between atoms: _464  and  _467
REMARK  190  A    between atoms: _467  and  _468
REMARK  191  A    between atoms: _474  and  _476
REMARK  192  A    between atoms: _476  and  _477
REMARK  193  A    between atoms: _476  and  _479
REMARK  194  A    between atoms: _479  and  _480
REMARK                            x       y       z     vdW  Elec       q    Type
REMARK                         _______ _______ _______ _____ _____    ______ ____
ROOT
ATOM      1  O   HOH     1      45.842  -3.134 100.577  0.00  0.00    +0.000 OA
ENDROOT
TORSDOF 0
REMARK  Name = ../refined-set-2016/2p4s/2p4s_pocket.pdb
REMARK  194 active torsions:
REMARK  status: ('A' for Active; 'I' for Inactive)
REMARK    1  A    between atoms: _1  and  _3
REMARK    2  A    between atoms: _3  and  _4
REMARK    3  A    between atoms: _6  and  _8
REMARK    4  A    between atoms: _8  and  _9
REMARK    5  A    between atoms: _8  and  _11
REMARK    6  A    between atoms: _11  and  _12
REMARK    7  A    between atoms: _14  and  _16
REMARK    8  A    between atoms: _16  and  _17
REMARK    9  A    between atoms: _19  and  _21
REMARK   10  A    between atoms: _21  and  _22
REMARK   11  A    between atoms: _21  and  _24
REMARK   12  A    between atoms: _27  and  _29
REMARK   13  A    between atoms: _29  and  _30
REMARK   14  A    between atoms: _33  and  _35
REMARK   15  A    between atoms: _35  and  _36
REMARK   16  A    between atoms: _35  and  _38
REMARK   17  A    between atoms: _38  and  _39
REMARK   18  A    between atoms: _44  and  _46
REMARK   19  A    between atoms: _46  and  _47
REMARK   20  A    between atoms: _46  and  _49
REMARK   21  A    between atoms: _49  and  _50
REMARK   22  A    between atoms: _50  and  _51
REMARK   23  A    between atoms: _51  and  _52
REMARK   24  A    between atoms: _61  and  _63
REMARK   25  A    between atoms: _63  and  _64
REMARK   26  A    between atoms: _63  and  _66
REMARK   27  A    between atoms: _66  and  _67
REMARK   28  A    between atoms: _73  and  _75
REMARK   29  A    between atoms: _75  and  _76
REMARK   30  A    between atoms: _75  and  _78
REMARK   31  A    between atoms: _78  and  _79
REMARK   32  A    between atoms: _84  and  _86
REMARK   33  A    between atoms: _86  and  _87
REMARK   34  A    between atoms: _86  and  _89
REMARK   35  A    between atoms: _89  and  _90
REMARK   36  A    between atoms: _95  and  _97
REMARK   37  A    between atoms: _97  and  _98
REMARK   38  A    between atoms: _97  and  _100
REMARK   39  A    between atoms: _100  and  _101
REMARK   40  A    between atoms: _106  and  _107
REMARK   41  A    between atoms: _109  and  _111
REMARK   42  A    between atoms: _111  and  _112
REMARK   43  A    between atoms: _111  and  _114
REMARK   44  A    between atoms: _114  and  _115
REMARK   45  A    between atoms: _115  and  _116
REMARK   46  A    between atoms: _119  and  _121
REMARK   47  A    between atoms: _121  and  _122
REMARK   48  A    between atoms: _121  and  _124
REMARK   49  A    between atoms: _124  and  _125
REMARK   50  A    between atoms: _130  and  _132
REMARK   51  A    between atoms: _132  and  _133
REMARK   52  A    between atoms: _136  and  _138
REMARK   53  A    between atoms: _138  and  _139
REMARK   54  A    between atoms: _142  and  _144
REMARK   55  A    between atoms: _144  and  _145
REMARK   56  A    between atoms: _147  and  _149
REMARK   57  A    between atoms: _149  and  _150
REMARK   58  A    between atoms: _152  and  _154
REMARK   59  A    between atoms: _154  and  _155
REMARK   60  A    between atoms: _158  and  _160
REMARK   61  A    between atoms: _160  and  _161
REMARK   62  A    between atoms: _160  and  _163
REMARK   63  A    between atoms: _163  and  _164
REMARK   64  A    between atoms: _169  and  _170
REMARK   65  A    between atoms: _172  and  _174
REMARK   66  A    between atoms: _174  and  _175
REMARK   67  A    between atoms: _174  and  _177
REMARK   68  A    between atoms: _177  and  _178
REMARK   69  A    between atoms: _181  and  _183
REMARK   70  A    between atoms: _183  and  _184
REMARK   71  A    between atoms: _183  and  _186
REMARK   72  A    between atoms: _188  and  _190
REMARK   73  A    between atoms: _190  and  _191
REMARK   74  A    between atoms: _190  and  _193
REMARK   75  A    between atoms: _193  and  _194
REMARK   76  A    between atoms: _197  and  _199
REMARK   77  A    between atoms: _199  and  _200
REMARK   78  A    between atoms: _202  and  _204
REMARK   79  A    between atoms: _204  and  _205
REMARK   80  A    between atoms: _208  and  _209
REMARK   81  A    between atoms: _214  and  _216
REMARK   82  A    between atoms: _216  and  _217
REMARK   83  A    between atoms: _216  and  _219
REMARK   84  A    between atoms: _219  and  _220
REMARK   85  A    between atoms: _225  and  _227
REMARK   86  A    between atoms: _227  and  _228
REMARK   87  A    between atoms: _227  and  _230
REMARK   88  A    between atoms: _230  and  _231
REMARK   89  A    between atoms: _237  and  _239
REMARK   90  A    between atoms: _239  and  _240
REMARK   91  A    between atoms: _239  and  _242
REMARK   92  A    between atoms: _242  and  _243
REMARK   93  A    between atoms: _243  and  _244
REMARK   94  A    between atoms: _247  and  _249
REMARK   95  A    between atoms: _249  and  _250
REMARK   96  A    between atoms: _249  and  _252
REMARK   97  A    between atoms: _255  and  _257
REMARK   98  A    between atoms: _257  and  _258
REMARK   99  A    between atoms: _261  and  _263
REMARK  100  A    between atoms: _263  and  _264
REMARK  101  A    between atoms: _263  and  _266
REMARK  102  A    between atoms: _266  and  _267
REMARK  103  A    between atoms: _270  and  _272
REMARK  104  A    between atoms: _272  and  _273
REMARK  105  A    between atoms: _275  and  _277
REMARK  106  A    between atoms: _277  and  _278
REMARK  107  A    between atoms: _277  and  _280
REMARK  108  A    between atoms: _280  and  _281
REMARK  109  A    between atoms: _281  and  _282
REMARK  110  A    between atoms: _284  and  _286
REMARK  111  A    between atoms: _286  and  _287
REMARK  112  A    between atoms: _286  and  _289
REMARK  113  A    between atoms: _289  and  _290
REMARK  114  A    between atoms: _292  and  _294
REMARK  115  A    between atoms: _294  and  _295
REMARK  116  A    between atoms: _294  and  _297
REMARK  117  A    between atoms: _297  and  _298
REMARK  118  A    between atoms: _301  and  _303
REMARK  119  A    between atoms: _303  and  _304
REMARK  120  A    between atoms: _303  and  _306
REMARK  121  A    between atoms: _306  and  _307
REMARK  122  A    between atoms: _309  and  _311
REMARK  123  A    between atoms: _311  and  _312
REMARK  124  A    between atoms: _311  and  _314
REMARK  125  A    between atoms: _314  and  _315
REMARK  126  A    between atoms: _318  and  _320
REMARK  127  A    between atoms: _320  and  _321
REMARK  128  A    between atoms: _320  and  _323
REMARK  129  A    between atoms: _323  and  _324
REMARK  130  A    between atoms: _327  and  _329
REMARK  131  A    between atoms: _329  and  _330
REMARK  132  A    between atoms: _329  and  _332
REMARK  133  A    between atoms: _332  and  _333
REMARK  134  A    between atoms: _336  and  _338
REMARK  135  A    between atoms: _338  and  _339
REMARK  136  A    between atoms: _338  and  _341
REMARK  137  A    between atoms: _341  and  _342
REMARK  138  A    between atoms: _347  and  _349
REMARK  139  A    between atoms: _349  and  _350
REMARK  140  A    between atoms: _349  and  _352
REMARK  141  A    between atoms: _352  and  _353
REMARK  142  A    between atoms: _353  and  _354
REMARK  143  A    between atoms: _356  and  _358
REMARK  144  A    between atoms: _358  and  _359
REMARK  145  A    between atoms: _358  and  _361
REMARK  146  A    between atoms: _363  and  _365
REMARK  147  A    between atoms: _365  and  _366
REMARK  148  A    between atoms: _365  and  _368
REMARK  149  A    between atoms: _368  and  _369
REMARK  150  A    between atoms: _372  and  _374
REMARK  151  A    between atoms: _374  and  _375
REMARK  152  A    between atoms: _374  and  _377
REMARK  153  A    between atoms: _377  and  _378
REMARK  154  A    between atoms: _378  and  _379
REMARK  155  A    between atoms: _382  and  _384
REMARK  156  A    between atoms: _384  and  _385
REMARK  157  A    between atoms: _384  and  _387
REMARK  158  A    between atoms: _387  and  _388
REMARK  159  A    between atoms: _393  and  _395
REMARK  160  A    between atoms: _395  and  _396
REMARK  161  A    between atoms: _395  and  _398
REMARK  162  A    between atoms: _400  and  _402
REMARK  163  A    between atoms: _402  and  _403
REMARK  164  A    between atoms: _402  and  _405
REMARK  165  A    between atoms: _405  and  _406
REMARK  166  A    between atoms: _411  and  _413
REMARK  167  A    between atoms: _413  and  _414
REMARK  168  A    between atoms: _413  and  _416
REMARK  169  A    between atoms: _416  and  _417
REMARK  170  A    between atoms: _420  and  _422
REMARK  171  A    between atoms: _422  and  _423
REMARK  172  A    between atoms: _422  and  _425
REMARK  173  A    between atoms: _425  and  _426
REMARK  174  A    between atoms: _428  and  _430
REMARK  175  A    between atoms: _430  and  _431
REMARK  176  A    between atoms: _430  and  _433
REMARK  177  A    between atoms: _433  and  _434
REMARK  178  A    between atoms: _437  and  _439
REMARK  179  A    between atoms: _439  and  _440
REMARK  180  A    between atoms: _439  and  _442
REMARK  181  A    between atoms: _445  and  _447
REMARK  182  A    between atoms: _447  and  _448
REMARK  183  A    between atoms: _447  and  _450
REMARK  184  A    between atoms: _450  and  _451
REMARK  185  A    between atoms: _451  and  _452
REMARK  186  A    between atoms: _452  and  _453
REMARK  187  A    between atoms: _462  and  _464
REMARK  188  A    between atoms: _464  and  _465
REMARK  189  A    between atoms: _464  and  _467
REMARK  190  A    between atoms: _467  and  _468
REMARK  191  A    between atoms: _474  and  _476
REMARK  192  A    between atoms: _476  and  _477
REMARK  193  A    between atoms: _476  and  _479
REMARK  194  A    between atoms: _479  and  _480
REMARK                            x       y       z     vdW  Elec       q    Type
REMARK                         _______ _______ _______ _____ _____    ______ ____
ROOT
ATOM      1  O   HOH     1      39.657  -5.317 105.448  0.00  0.00    +0.000 OA
ENDROOT
TORSDOF 0
REMARK  Name = ../refined-set-2016/2p4s/2p4s_pocket.pdb
REMARK  194 active torsions:
REMARK  status: ('A' for Active; 'I' for Inactive)
REMARK    1  A    between atoms: _1  and  _3
REMARK    2  A    between atoms: _3  and  _4
REMARK    3  A    between atoms: _6  and  _8
REMARK    4  A    between atoms: _8  and  _9
REMARK    5  A    between atoms: _8  and  _11
REMARK    6  A    between atoms: _11  and  _12
REMARK    7  A    between atoms: _14  and  _16
REMARK    8  A    between atoms: _16  and  _17
REMARK    9  A    between atoms: _19  and  _21
REMARK   10  A    between atoms: _21  and  _22
REMARK   11  A    between atoms: _21  and  _24
REMARK   12  A    between atoms: _27  and  _29
REMARK   13  A    between atoms: _29  and  _30
REMARK   14  A    between atoms: _33  and  _35
REMARK   15  A    between atoms: _35  and  _36
REMARK   16  A    between atoms: _35  and  _38
REMARK   17  A    between atoms: _38  and  _39
REMARK   18  A    between atoms: _44  and  _46
REMARK   19  A    between atoms: _46  and  _47
REMARK   20  A    between atoms: _46  and  _49
REMARK   21  A    between atoms: _49  and  _50
REMARK   22  A    between atoms: _50  and  _51
REMARK   23  A    between atoms: _51  and  _52
REMARK   24  A    between atoms: _61  and  _63
REMARK   25  A    between atoms: _63  and  _64
REMARK   26  A    between atoms: _63  and  _66
REMARK   27  A    between atoms: _66  and  _67
REMARK   28  A    between atoms: _73  and  _75
REMARK   29  A    between atoms: _75  and  _76
REMARK   30  A    between atoms: _75  and  _78
REMARK   31  A    between atoms: _78  and  _79
REMARK   32  A    between atoms: _84  and  _86
REMARK   33  A    between atoms: _86  and  _87
REMARK   34  A    between atoms: _86  and  _89
REMARK   35  A    between atoms: _89  and  _90
REMARK   36  A    between atoms: _95  and  _97
REMARK   37  A    between atoms: _97  and  _98
REMARK   38  A    between atoms: _97  and  _100
REMARK   39  A    between atoms: _100  and  _101
REMARK   40  A    between atoms: _106  and  _107
REMARK   41  A    between atoms: _109  and  _111
REMARK   42  A    between atoms: _111  and  _112
REMARK   43  A    between atoms: _111  and  _114
REMARK   44  A    between atoms: _114  and  _115
REMARK   45  A    between atoms: _115  and  _116
REMARK   46  A    between atoms: _119  and  _121
REMARK   47  A    between atoms: _121  and  _122
REMARK   48  A    between atoms: _121  and  _124
REMARK   49  A    between atoms: _124  and  _125
REMARK   50  A    between atoms: _130  and  _132
REMARK   51  A    between atoms: _132  and  _133
REMARK   52  A    between atoms: _136  and  _138
REMARK   53  A    between atoms: _138  and  _139
REMARK   54  A    between atoms: _142  and  _144
REMARK   55  A    between atoms: _144  and  _145
REMARK   56  A    between atoms: _147  and  _149
REMARK   57  A    between atoms: _149  and  _150
REMARK   58  A    between atoms: _152  and  _154
REMARK   59  A    between atoms: _154  and  _155
REMARK   60  A    between atoms: _158  and  _160
REMARK   61  A    between atoms: _160  and  _161
REMARK   62  A    between atoms: _160  and  _163
REMARK   63  A    between atoms: _163  and  _164
REMARK   64  A    between atoms: _169  and  _170
REMARK   65  A    between atoms: _172  and  _174
REMARK   66  A    between atoms: _174  and  _175
REMARK   67  A    between atoms: _174  and  _177
REMARK   68  A    between atoms: _177  and  _178
REMARK   69  A    between atoms: _181  and  _183
REMARK   70  A    between atoms: _183  and  _184
REMARK   71  A    between atoms: _183  and  _186
REMARK   72  A    between atoms: _188  and  _190
REMARK   73  A    between atoms: _190  and  _191
REMARK   74  A    between atoms: _190  and  _193
REMARK   75  A    between atoms: _193  and  _194
REMARK   76  A    between atoms: _197  and  _199
REMARK   77  A    between atoms: _199  and  _200
REMARK   78  A    between atoms: _202  and  _204
REMARK   79  A    between atoms: _204  and  _205
REMARK   80  A    between atoms: _208  and  _209
REMARK   81  A    between atoms: _214  and  _216
REMARK   82  A    between atoms: _216  and  _217
REMARK   83  A    between atoms: _216  and  _219
REMARK   84  A    between atoms: _219  and  _220
REMARK   85  A    between atoms: _225  and  _227
REMARK   86  A    between atoms: _227  and  _228
REMARK   87  A    between atoms: _227  and  _230
REMARK   88  A    between atoms: _230  and  _231
REMARK   89  A    between atoms: _237  and  _239
REMARK   90  A    between atoms: _239  and  _240
REMARK   91  A    between atoms: _239  and  _242
REMARK   92  A    between atoms: _242  and  _243
REMARK   93  A    between atoms: _243  and  _244
REMARK   94  A    between atoms: _247  and  _249
REMARK   95  A    between atoms: _249  and  _250
REMARK   96  A    between atoms: _249  and  _252
REMARK   97  A    between atoms: _255  and  _257
REMARK   98  A    between atoms: _257  and  _258
REMARK   99  A    between atoms: _261  and  _263
REMARK  100  A    between atoms: _263  and  _264
REMARK  101  A    between atoms: _263  and  _266
REMARK  102  A    between atoms: _266  and  _267
REMARK  103  A    between atoms: _270  and  _272
REMARK  104  A    between atoms: _272  and  _273
REMARK  105  A    between atoms: _275  and  _277
REMARK  106  A    between atoms: _277  and  _278
REMARK  107  A    between atoms: _277  and  _280
REMARK  108  A    between atoms: _280  and  _281
REMARK  109  A    between atoms: _281  and  _282
REMARK  110  A    between atoms: _284  and  _286
REMARK  111  A    between atoms: _286  and  _287
REMARK  112  A    between atoms: _286  and  _289
REMARK  113  A    between atoms: _289  and  _290
REMARK  114  A    between atoms: _292  and  _294
REMARK  115  A    between atoms: _294  and  _295
REMARK  116  A    between atoms: _294  and  _297
REMARK  117  A    between atoms: _297  and  _298
REMARK  118  A    between atoms: _301  and  _303
REMARK  119  A    between atoms: _303  and  _304
REMARK  120  A    between atoms: _303  and  _306
REMARK  121  A    between atoms: _306  and  _307
REMARK  122  A    between atoms: _309  and  _311
REMARK  123  A    between atoms: _311  and  _312
REMARK  124  A    between atoms: _311  and  _314
REMARK  125  A    between atoms: _314  and  _315
REMARK  126  A    between atoms: _318  and  _320
REMARK  127  A    between atoms: _320  and  _321
REMARK  128  A    between atoms: _320  and  _323
REMARK  129  A    between atoms: _323  and  _324
REMARK  130  A    between atoms: _327  and  _329
REMARK  131  A    between atoms: _329  and  _330
REMARK  132  A    between atoms: _329  and  _332
REMARK  133  A    between atoms: _332  and  _333
REMARK  134  A    between atoms: _336  and  _338
REMARK  135  A    between atoms: _338  and  _339
REMARK  136  A    between atoms: _338  and  _341
REMARK  137  A    between atoms: _341  and  _342
REMARK  138  A    between atoms: _347  and  _349
REMARK  139  A    between atoms: _349  and  _350
REMARK  140  A    between atoms: _349  and  _352
REMARK  141  A    between atoms: _352  and  _353
REMARK  142  A    between atoms: _353  and  _354
REMARK  143  A    between atoms: _356  and  _358
REMARK  144  A    between atoms: _358  and  _359
REMARK  145  A    between atoms: _358  and  _361
REMARK  146  A    between atoms: _363  and  _365
REMARK  147  A    between atoms: _365  and  _366
REMARK  148  A    between atoms: _365  and  _368
REMARK  149  A    between atoms: _368  and  _369
REMARK  150  A    between atoms: _372  and  _374
REMARK  151  A    between atoms: _374  and  _375
REMARK  152  A    between atoms: _374  and  _377
REMARK  153  A    between atoms: _377  and  _378
REMARK  154  A    between atoms: _378  and  _379
REMARK  155  A    between atoms: _382  and  _384
REMARK  156  A    between atoms: _384  and  _385
REMARK  157  A    between atoms: _384  and  _387
REMARK  158  A    between atoms: _387  and  _388
REMARK  159  A    between atoms: _393  and  _395
REMARK  160  A    between atoms: _395  and  _396
REMARK  161  A    between atoms: _395  and  _398
REMARK  162  A    between atoms: _400  and  _402
REMARK  163  A    between atoms: _402  and  _403
REMARK  164  A    between atoms: _402  and  _405
REMARK  165  A    between atoms: _405  and  _406
REMARK  166  A    between atoms: _411  and  _413
REMARK  167  A    between atoms: _413  and  _414
REMARK  168  A    between atoms: _413  and  _416
REMARK  169  A    between atoms: _416  and  _417
REMARK  170  A    between atoms: _420  and  _422
REMARK  171  A    between atoms: _422  and  _423
REMARK  172  A    between atoms: _422  and  _425
REMARK  173  A    between atoms: _425  and  _426
REMARK  174  A    between atoms: _428  and  _430
REMARK  175  A    between atoms: _430  and  _431
REMARK  176  A    between atoms: _430  and  _433
REMARK  177  A    between atoms: _433  and  _434
REMARK  178  A    between atoms: _437  and  _439
REMARK  179  A    between atoms: _439  and  _440
REMARK  180  A    between atoms: _439  and  _442
REMARK  181  A    between atoms: _445  and  _447
REMARK  182  A    between atoms: _447  and  _448
REMARK  183  A    between atoms: _447  and  _450
REMARK  184  A    between atoms: _450  and  _451
REMARK  185  A    between atoms: _451  and  _452
REMARK  186  A    between atoms: _452  and  _453
REMARK  187  A    between atoms: _462  and  _464
REMARK  188  A    between atoms: _464  and  _465
REMARK  189  A    between atoms: _464  and  _467
REMARK  190  A    between atoms: _467  and  _468
REMARK  191  A    between atoms: _474  and  _476
REMARK  192  A    between atoms: _476  and  _477
REMARK  193  A    between atoms: _476  and  _479
REMARK  194  A    between atoms: _479  and  _480
REMARK                            x       y       z     vdW  Elec       q    Type
REMARK                         _______ _______ _______ _____ _____    ______ ____
ROOT
ATOM      1  O   HOH     1      37.516  -6.784 106.307  0.00  0.00    +0.000 OA
ENDROOT
TORSDOF 0
REMARK  Name = ../refined-set-2016/2p4s/2p4s_pocket.pdb
REMARK  194 active torsions:
REMARK  status: ('A' for Active; 'I' for Inactive)
REMARK    1  A    between atoms: _1  and  _3
REMARK    2  A    between atoms: _3  and  _4
REMARK    3  A    between atoms: _6  and  _8
REMARK    4  A    between atoms: _8  and  _9
REMARK    5  A    between atoms: _8  and  _11
REMARK    6  A    between atoms: _11  and  _12
REMARK    7  A    between atoms: _14  and  _16
REMARK    8  A    between atoms: _16  and  _17
REMARK    9  A    between atoms: _19  and  _21
REMARK   10  A    between atoms: _21  and  _22
REMARK   11  A    between atoms: _21  and  _24
REMARK   12  A    between atoms: _27  and  _29
REMARK   13  A    between atoms: _29  and  _30
REMARK   14  A    between atoms: _33  and  _35
REMARK   15  A    between atoms: _35  and  _36
REMARK   16  A    between atoms: _35  and  _38
REMARK   17  A    between atoms: _38  and  _39
REMARK   18  A    between atoms: _44  and  _46
REMARK   19  A    between atoms: _46  and  _47
REMARK   20  A    between atoms: _46  and  _49
REMARK   21  A    between atoms: _49  and  _50
REMARK   22  A    between atoms: _50  and  _51
REMARK   23  A    between atoms: _51  and  _52
REMARK   24  A    between atoms: _61  and  _63
REMARK   25  A    between atoms: _63  and  _64
REMARK   26  A    between atoms: _63  and  _66
REMARK   27  A    between atoms: _66  and  _67
REMARK   28  A    between atoms: _73  and  _75
REMARK   29  A    between atoms: _75  and  _76
REMARK   30  A    between atoms: _75  and  _78
REMARK   31  A    between atoms: _78  and  _79
REMARK   32  A    between atoms: _84  and  _86
REMARK   33  A    between atoms: _86  and  _87
REMARK   34  A    between atoms: _86  and  _89
REMARK   35  A    between atoms: _89  and  _90
REMARK   36  A    between atoms: _95  and  _97
REMARK   37  A    between atoms: _97  and  _98
REMARK   38  A    between atoms: _97  and  _100
REMARK   39  A    between atoms: _100  and  _101
REMARK   40  A    between atoms: _106  and  _107
REMARK   41  A    between atoms: _109  and  _111
REMARK   42  A    between atoms: _111  and  _112
REMARK   43  A    between atoms: _111  and  _114
REMARK   44  A    between atoms: _114  and  _115
REMARK   45  A    between atoms: _115  and  _116
REMARK   46  A    between atoms: _119  and  _121
REMARK   47  A    between atoms: _121  and  _122
REMARK   48  A    between atoms: _121  and  _124
REMARK   49  A    between atoms: _124  and  _125
REMARK   50  A    between atoms: _130  and  _132
REMARK   51  A    between atoms: _132  and  _133
REMARK   52  A    between atoms: _136  and  _138
REMARK   53  A    between atoms: _138  and  _139
REMARK   54  A    between atoms: _142  and  _144
REMARK   55  A    between atoms: _144  and  _145
REMARK   56  A    between atoms: _147  and  _149
REMARK   57  A    between atoms: _149  and  _150
REMARK   58  A    between atoms: _152  and  _154
REMARK   59  A    between atoms: _154  and  _155
REMARK   60  A    between atoms: _158  and  _160
REMARK   61  A    between atoms: _160  and  _161
REMARK   62  A    between atoms: _160  and  _163
REMARK   63  A    between atoms: _163  and  _164
REMARK   64  A    between atoms: _169  and  _170
REMARK   65  A    between atoms: _172  and  _174
REMARK   66  A    between atoms: _174  and  _175
REMARK   67  A    between atoms: _174  and  _177
REMARK   68  A    between atoms: _177  and  _178
REMARK   69  A    between atoms: _181  and  _183
REMARK   70  A    between atoms: _183  and  _184
REMARK   71  A    between atoms: _183  and  _186
REMARK   72  A    between atoms: _188  and  _190
REMARK   73  A    between atoms: _190  and  _191
REMARK   74  A    between atoms: _190  and  _193
REMARK   75  A    between atoms: _193  and  _194
REMARK   76  A    between atoms: _197  and  _199
REMARK   77  A    between atoms: _199  and  _200
REMARK   78  A    between atoms: _202  and  _204
REMARK   79  A    between atoms: _204  and  _205
REMARK   80  A    between atoms: _208  and  _209
REMARK   81  A    between atoms: _214  and  _216
REMARK   82  A    between atoms: _216  and  _217
REMARK   83  A    between atoms: _216  and  _219
REMARK   84  A    between atoms: _219  and  _220
REMARK   85  A    between atoms: _225  and  _227
REMARK   86  A    between atoms: _227  and  _228
REMARK   87  A    between atoms: _227  and  _230
REMARK   88  A    between atoms: _230  and  _231
REMARK   89  A    between atoms: _237  and  _239
REMARK   90  A    between atoms: _239  and  _240
REMARK   91  A    between atoms: _239  and  _242
REMARK   92  A    between atoms: _242  and  _243
REMARK   93  A    between atoms: _243  and  _244
REMARK   94  A    between atoms: _247  and  _249
REMARK   95  A    between atoms: _249  and  _250
REMARK   96  A    between atoms: _249  and  _252
REMARK   97  A    between atoms: _255  and  _257
REMARK   98  A    between atoms: _257  and  _258
REMARK   99  A    between atoms: _261  and  _263
REMARK  100  A    between atoms: _263  and  _264
REMARK  101  A    between atoms: _263  and  _266
REMARK  102  A    between atoms: _266  and  _267
REMARK  103  A    between atoms: _270  and  _272
REMARK  104  A    between atoms: _272  and  _273
REMARK  105  A    between atoms: _275  and  _277
REMARK  106  A    between atoms: _277  and  _278
REMARK  107  A    between atoms: _277  and  _280
REMARK  108  A    between atoms: _280  and  _281
REMARK  109  A    between atoms: _281  and  _282
REMARK  110  A    between atoms: _284  and  _286
REMARK  111  A    between atoms: _286  and  _287
REMARK  112  A    between atoms: _286  and  _289
REMARK  113  A    between atoms: _289  and  _290
REMARK  114  A    between atoms: _292  and  _294
REMARK  115  A    between atoms: _294  and  _295
REMARK  116  A    between atoms: _294  and  _297
REMARK  117  A    between atoms: _297  and  _298
REMARK  118  A    between atoms: _301  and  _303
REMARK  119  A    between atoms: _303  and  _304
REMARK  120  A    between atoms: _303  and  _306
REMARK  121  A    between atoms: _306  and  _307
REMARK  122  A    between atoms: _309  and  _311
REMARK  123  A    between atoms: _311  and  _312
REMARK  124  A    between atoms: _311  and  _314
REMARK  125  A    between atoms: _314  and  _315
REMARK  126  A    between atoms: _318  and  _320
REMARK  127  A    between atoms: _320  and  _321
REMARK  128  A    between atoms: _320  and  _323
REMARK  129  A    between atoms: _323  and  _324
REMARK  130  A    between atoms: _327  and  _329
REMARK  131  A    between atoms: _329  and  _330
REMARK  132  A    between atoms: _329  and  _332
REMARK  133  A    between atoms: _332  and  _333
REMARK  134  A    between atoms: _336  and  _338
REMARK  135  A    between atoms: _338  and  _339
REMARK  136  A    between atoms: _338  and  _341
REMARK  137  A    between atoms: _341  and  _342
REMARK  138  A    between atoms: _347  and  _349
REMARK  139  A    between atoms: _349  and  _350
REMARK  140  A    between atoms: _349  and  _352
REMARK  141  A    between atoms: _352  and  _353
REMARK  142  A    between atoms: _353  and  _354
REMARK  143  A    between atoms: _356  and  _358
REMARK  144  A    between atoms: _358  and  _359
REMARK  145  A    between atoms: _358  and  _361
REMARK  146  A    between atoms: _363  and  _365
REMARK  147  A    between atoms: _365  and  _366
REMARK  148  A    between atoms: _365  and  _368
REMARK  149  A    between atoms: _368  and  _369
REMARK  150  A    between atoms: _372  and  _374
REMARK  151  A    between atoms: _374  and  _375
REMARK  152  A    between atoms: _374  and  _377
REMARK  153  A    between atoms: _377  and  _378
REMARK  154  A    between atoms: _378  and  _379
REMARK  155  A    between atoms: _382  and  _384
REMARK  156  A    between atoms: _384  and  _385
REMARK  157  A    between atoms: _384  and  _387
REMARK  158  A    between atoms: _387  and  _388
REMARK  159  A    between atoms: _393  and  _395
REMARK  160  A    between atoms: _395  and  _396
REMARK  161  A    between atoms: _395  and  _398
REMARK  162  A    between atoms: _400  and  _402
REMARK  163  A    between atoms: _402  and  _403
REMARK  164  A    between atoms: _402  and  _405
REMARK  165  A    between atoms: _405  and  _406
REMARK  166  A    between atoms: _411  and  _413
REMARK  167  A    between atoms: _413  and  _414
REMARK  168  A    between atoms: _413  and  _416
REMARK  169  A    between atoms: _416  and  _417
REMARK  170  A    between atoms: _420  and  _422
REMARK  171  A    between atoms: _422  and  _423
REMARK  172  A    between atoms: _422  and  _425
REMARK  173  A    between atoms: _425  and  _426
REMARK  174  A    between atoms: _428  and  _430
REMARK  175  A    between atoms: _430  and  _431
REMARK  176  A    between atoms: _430  and  _433
REMARK  177  A    between atoms: _433  and  _434
REMARK  178  A    between atoms: _437  and  _439
REMARK  179  A    between atoms: _439  and  _440
REMARK  180  A    between atoms: _439  and  _442
REMARK  181  A    between atoms: _445  and  _447
REMARK  182  A    between atoms: _447  and  _448
REMARK  183  A    between atoms: _447  and  _450
REMARK  184  A    between atoms: _450  and  _451
REMARK  185  A    between atoms: _451  and  _452
REMARK  186  A    between atoms: _452  and  _453
REMARK  187  A    between atoms: _462  and  _464
REMARK  188  A    between atoms: _464  and  _465
REMARK  189  A    between atoms: _464  and  _467
REMARK  190  A    between atoms: _467  and  _468
REMARK  191  A    between atoms: _474  and  _476
REMARK  192  A    between atoms: _476  and  _477
REMARK  193  A    between atoms: _476  and  _479
REMARK  194  A    between atoms: _479  and  _480
REMARK                            x       y       z     vdW  Elec       q    Type
REMARK                         _______ _______ _______ _____ _____    ______ ____
ROOT
ATOM      1  O   HOH     1      39.512   7.527 113.583  0.00  0.00    +0.000 OA
ENDROOT
TORSDOF 0
REMARK  Name = ../refined-set-2016/2p4s/2p4s_pocket.pdb
REMARK  194 active torsions:
REMARK  status: ('A' for Active; 'I' for Inactive)
REMARK    1  A    between atoms: _1  and  _3
REMARK    2  A    between atoms: _3  and  _4
REMARK    3  A    between atoms: _6  and  _8
REMARK    4  A    between atoms: _8  and  _9
REMARK    5  A    between atoms: _8  and  _11
REMARK    6  A    between atoms: _11  and  _12
REMARK    7  A    between atoms: _14  and  _16
REMARK    8  A    between atoms: _16  and  _17
REMARK    9  A    between atoms: _19  and  _21
REMARK   10  A    between atoms: _21  and  _22
REMARK   11  A    between atoms: _21  and  _24
REMARK   12  A    between atoms: _27  and  _29
REMARK   13  A    between atoms: _29  and  _30
REMARK   14  A    between atoms: _33  and  _35
REMARK   15  A    between atoms: _35  and  _36
REMARK   16  A    between atoms: _35  and  _38
REMARK   17  A    between atoms: _38  and  _39
REMARK   18  A    between atoms: _44  and  _46
REMARK   19  A    between atoms: _46  and  _47
REMARK   20  A    between atoms: _46  and  _49
REMARK   21  A    between atoms: _49  and  _50
REMARK   22  A    between atoms: _50  and  _51
REMARK   23  A    between atoms: _51  and  _52
REMARK   24  A    between atoms: _61  and  _63
REMARK   25  A    between atoms: _63  and  _64
REMARK   26  A    between atoms: _63  and  _66
REMARK   27  A    between atoms: _66  and  _67
REMARK   28  A    between atoms: _73  and  _75
REMARK   29  A    between atoms: _75  and  _76
REMARK   30  A    between atoms: _75  and  _78
REMARK   31  A    between atoms: _78  and  _79
REMARK   32  A    between atoms: _84  and  _86
REMARK   33  A    between atoms: _86  and  _87
REMARK   34  A    between atoms: _86  and  _89
REMARK   35  A    between atoms: _89  and  _90
REMARK   36  A    between atoms: _95  and  _97
REMARK   37  A    between atoms: _97  and  _98
REMARK   38  A    between atoms: _97  and  _100
REMARK   39  A    between atoms: _100  and  _101
REMARK   40  A    between atoms: _106  and  _107
REMARK   41  A    between atoms: _109  and  _111
REMARK   42  A    between atoms: _111  and  _112
REMARK   43  A    between atoms: _111  and  _114
REMARK   44  A    between atoms: _114  and  _115
REMARK   45  A    between atoms: _115  and  _116
REMARK   46  A    between atoms: _119  and  _121
REMARK   47  A    between atoms: _121  and  _122
REMARK   48  A    between atoms: _121  and  _124
REMARK   49  A    between atoms: _124  and  _125
REMARK   50  A    between atoms: _130  and  _132
REMARK   51  A    between atoms: _132  and  _133
REMARK   52  A    between atoms: _136  and  _138
REMARK   53  A    between atoms: _138  and  _139
REMARK   54  A    between atoms: _142  and  _144
REMARK   55  A    between atoms: _144  and  _145
REMARK   56  A    between atoms: _147  and  _149
REMARK   57  A    between atoms: _149  and  _150
REMARK   58  A    between atoms: _152  and  _154
REMARK   59  A    between atoms: _154  and  _155
REMARK   60  A    between atoms: _158  and  _160
REMARK   61  A    between atoms: _160  and  _161
REMARK   62  A    between atoms: _160  and  _163
REMARK   63  A    between atoms: _163  and  _164
REMARK   64  A    between atoms: _169  and  _170
REMARK   65  A    between atoms: _172  and  _174
REMARK   66  A    between atoms: _174  and  _175
REMARK   67  A    between atoms: _174  and  _177
REMARK   68  A    between atoms: _177  and  _178
REMARK   69  A    between atoms: _181  and  _183
REMARK   70  A    between atoms: _183  and  _184
REMARK   71  A    between atoms: _183  and  _186
REMARK   72  A    between atoms: _188  and  _190
REMARK   73  A    between atoms: _190  and  _191
REMARK   74  A    between atoms: _190  and  _193
REMARK   75  A    between atoms: _193  and  _194
REMARK   76  A    between atoms: _197  and  _199
REMARK   77  A    between atoms: _199  and  _200
REMARK   78  A    between atoms: _202  and  _204
REMARK   79  A    between atoms: _204  and  _205
REMARK   80  A    between atoms: _208  and  _209
REMARK   81  A    between atoms: _214  and  _216
REMARK   82  A    between atoms: _216  and  _217
REMARK   83  A    between atoms: _216  and  _219
REMARK   84  A    between atoms: _219  and  _220
REMARK   85  A    between atoms: _225  and  _227
REMARK   86  A    between atoms: _227  and  _228
REMARK   87  A    between atoms: _227  and  _230
REMARK   88  A    between atoms: _230  and  _231
REMARK   89  A    between atoms: _237  and  _239
REMARK   90  A    between atoms: _239  and  _240
REMARK   91  A    between atoms: _239  and  _242
REMARK   92  A    between atoms: _242  and  _243
REMARK   93  A    between atoms: _243  and  _244
REMARK   94  A    between atoms: _247  and  _249
REMARK   95  A    between atoms: _249  and  _250
REMARK   96  A    between atoms: _249  and  _252
REMARK   97  A    between atoms: _255  and  _257
REMARK   98  A    between atoms: _257  and  _258
REMARK   99  A    between atoms: _261  and  _263
REMARK  100  A    between atoms: _263  and  _264
REMARK  101  A    between atoms: _263  and  _266
REMARK  102  A    between atoms: _266  and  _267
REMARK  103  A    between atoms: _270  and  _272
REMARK  104  A    between atoms: _272  and  _273
REMARK  105  A    between atoms: _275  and  _277
REMARK  106  A    between atoms: _277  and  _278
REMARK  107  A    between atoms: _277  and  _280
REMARK  108  A    between atoms: _280  and  _281
REMARK  109  A    between atoms: _281  and  _282
REMARK  110  A    between atoms: _284  and  _286
REMARK  111  A    between atoms: _286  and  _287
REMARK  112  A    between atoms: _286  and  _289
REMARK  113  A    between atoms: _289  and  _290
REMARK  114  A    between atoms: _292  and  _294
REMARK  115  A    between atoms: _294  and  _295
REMARK  116  A    between atoms: _294  and  _297
REMARK  117  A    between atoms: _297  and  _298
REMARK  118  A    between atoms: _301  and  _303
REMARK  119  A    between atoms: _303  and  _304
REMARK  120  A    between atoms: _303  and  _306
REMARK  121  A    between atoms: _306  and  _307
REMARK  122  A    between atoms: _309  and  _311
REMARK  123  A    between atoms: _311  and  _312
REMARK  124  A    between atoms: _311  and  _314
REMARK  125  A    between atoms: _314  and  _315
REMARK  126  A    between atoms: _318  and  _320
REMARK  127  A    between atoms: _320  and  _321
REMARK  128  A    between atoms: _320  and  _323
REMARK  129  A    between atoms: _323  and  _324
REMARK  130  A    between atoms: _327  and  _329
REMARK  131  A    between atoms: _329  and  _330
REMARK  132  A    between atoms: _329  and  _332
REMARK  133  A    between atoms: _332  and  _333
REMARK  134  A    between atoms: _336  and  _338
REMARK  135  A    between atoms: _338  and  _339
REMARK  136  A    between atoms: _338  and  _341
REMARK  137  A    between atoms: _341  and  _342
REMARK  138  A    between atoms: _347  and  _349
REMARK  139  A    between atoms: _349  and  _350
REMARK  140  A    between atoms: _349  and  _352
REMARK  141  A    between atoms: _352  and  _353
REMARK  142  A    between atoms: _353  and  _354
REMARK  143  A    between atoms: _356  and  _358
REMARK  144  A    between atoms: _358  and  _359
REMARK  145  A    between atoms: _358  and  _361
REMARK  146  A    between atoms: _363  and  _365
REMARK  147  A    between atoms: _365  and  _366
REMARK  148  A    between atoms: _365  and  _368
REMARK  149  A    between atoms: _368  and  _369
REMARK  150  A    between atoms: _372  and  _374
REMARK  151  A    between atoms: _374  and  _375
REMARK  152  A    between atoms: _374  and  _377
REMARK  153  A    between atoms: _377  and  _378
REMARK  154  A    between atoms: _378  and  _379
REMARK  155  A    between atoms: _382  and  _384
REMARK  156  A    between atoms: _384  and  _385
REMARK  157  A    between atoms: _384  and  _387
REMARK  158  A    between atoms: _387  and  _388
REMARK  159  A    between atoms: _393  and  _395
REMARK  160  A    between atoms: _395  and  _396
REMARK  161  A    between atoms: _395  and  _398
REMARK  162  A    between atoms: _400  and  _402
REMARK  163  A    between atoms: _402  and  _403
REMARK  164  A    between atoms: _402  and  _405
REMARK  165  A    between atoms: _405  and  _406
REMARK  166  A    between atoms: _411  and  _413
REMARK  167  A    between atoms: _413  and  _414
REMARK  168  A    between atoms: _413  and  _416
REMARK  169  A    between atoms: _416  and  _417
REMARK  170  A    between atoms: _420  and  _422
REMARK  171  A    between atoms: _422  and  _423
REMARK  172  A    between atoms: _422  and  _425
REMARK  173  A    between atoms: _425  and  _426
REMARK  174  A    between atoms: _428  and  _430
REMARK  175  A    between atoms: _430  and  _431
REMARK  176  A    between atoms: _430  and  _433
REMARK  177  A    between atoms: _433  and  _434
REMARK  178  A    between atoms: _437  and  _439
REMARK  179  A    between atoms: _439  and  _440
REMARK  180  A    between atoms: _439  and  _442
REMARK  181  A    between atoms: _445  and  _447
REMARK  182  A    between atoms: _447  and  _448
REMARK  183  A    between atoms: _447  and  _450
REMARK  184  A    between atoms: _450  and  _451
REMARK  185  A    between atoms: _451  and  _452
REMARK  186  A    between atoms: _452  and  _453
REMARK  187  A    between atoms: _462  and  _464
REMARK  188  A    between atoms: _464  and  _465
REMARK  189  A    between atoms: _464  and  _467
REMARK  190  A    between atoms: _467  and  _468
REMARK  191  A    between atoms: _474  and  _476
REMARK  192  A    between atoms: _476  and  _477
REMARK  193  A    between atoms: _476  and  _479
REMARK  194  A    between atoms: _479  and  _480
REMARK                            x       y       z     vdW  Elec       q    Type
REMARK                         _______ _______ _______ _____ _____    ______ ____
ROOT
ATOM      1  O   HOH     1      39.265  11.343 100.667  0.00  0.00    +0.000 OA
ENDROOT
TORSDOF 0
REMARK  Name = ../refined-set-2016/2p4s/2p4s_pocket.pdb
REMARK  194 active torsions:
REMARK  status: ('A' for Active; 'I' for Inactive)
REMARK    1  A    between atoms: _1  and  _3
REMARK    2  A    between atoms: _3  and  _4
REMARK    3  A    between atoms: _6  and  _8
REMARK    4  A    between atoms: _8  and  _9
REMARK    5  A    between atoms: _8  and  _11
REMARK    6  A    between atoms: _11  and  _12
REMARK    7  A    between atoms: _14  and  _16
REMARK    8  A    between atoms: _16  and  _17
REMARK    9  A    between atoms: _19  and  _21
REMARK   10  A    between atoms: _21  and  _22
REMARK   11  A    between atoms: _21  and  _24
REMARK   12  A    between atoms: _27  and  _29
REMARK   13  A    between atoms: _29  and  _30
REMARK   14  A    between atoms: _33  and  _35
REMARK   15  A    between atoms: _35  and  _36
REMARK   16  A    between atoms: _35  and  _38
REMARK   17  A    between atoms: _38  and  _39
REMARK   18  A    between atoms: _44  and  _46
REMARK   19  A    between atoms: _46  and  _47
REMARK   20  A    between atoms: _46  and  _49
REMARK   21  A    between atoms: _49  and  _50
REMARK   22  A    between atoms: _50  and  _51
REMARK   23  A    between atoms: _51  and  _52
REMARK   24  A    between atoms: _61  and  _63
REMARK   25  A    between atoms: _63  and  _64
REMARK   26  A    between atoms: _63  and  _66
REMARK   27  A    between atoms: _66  and  _67
REMARK   28  A    between atoms: _73  and  _75
REMARK   29  A    between atoms: _75  and  _76
REMARK   30  A    between atoms: _75  and  _78
REMARK   31  A    between atoms: _78  and  _79
REMARK   32  A    between atoms: _84  and  _86
REMARK   33  A    between atoms: _86  and  _87
REMARK   34  A    between atoms: _86  and  _89
REMARK   35  A    between atoms: _89  and  _90
REMARK   36  A    between atoms: _95  and  _97
REMARK   37  A    between atoms: _97  and  _98
REMARK   38  A    between atoms: _97  and  _100
REMARK   39  A    between atoms: _100  and  _101
REMARK   40  A    between atoms: _106  and  _107
REMARK   41  A    between atoms: _109  and  _111
REMARK   42  A    between atoms: _111  and  _112
REMARK   43  A    between atoms: _111  and  _114
REMARK   44  A    between atoms: _114  and  _115
REMARK   45  A    between atoms: _115  and  _116
REMARK   46  A    between atoms: _119  and  _121
REMARK   47  A    between atoms: _121  and  _122
REMARK   48  A    between atoms: _121  and  _124
REMARK   49  A    between atoms: _124  and  _125
REMARK   50  A    between atoms: _130  and  _132
REMARK   51  A    between atoms: _132  and  _133
REMARK   52  A    between atoms: _136  and  _138
REMARK   53  A    between atoms: _138  and  _139
REMARK   54  A    between atoms: _142  and  _144
REMARK   55  A    between atoms: _144  and  _145
REMARK   56  A    between atoms: _147  and  _149
REMARK   57  A    between atoms: _149  and  _150
REMARK   58  A    between atoms: _152  and  _154
REMARK   59  A    between atoms: _154  and  _155
REMARK   60  A    between atoms: _158  and  _160
REMARK   61  A    between atoms: _160  and  _161
REMARK   62  A    between atoms: _160  and  _163
REMARK   63  A    between atoms: _163  and  _164
REMARK   64  A    between atoms: _169  and  _170
REMARK   65  A    between atoms: _172  and  _174
REMARK   66  A    between atoms: _174  and  _175
REMARK   67  A    between atoms: _174  and  _177
REMARK   68  A    between atoms: _177  and  _178
REMARK   69  A    between atoms: _181  and  _183
REMARK   70  A    between atoms: _183  and  _184
REMARK   71  A    between atoms: _183  and  _186
REMARK   72  A    between atoms: _188  and  _190
REMARK   73  A    between atoms: _190  and  _191
REMARK   74  A    between atoms: _190  and  _193
REMARK   75  A    between atoms: _193  and  _194
REMARK   76  A    between atoms: _197  and  _199
REMARK   77  A    between atoms: _199  and  _200
REMARK   78  A    between atoms: _202  and  _204
REMARK   79  A    between atoms: _204  and  _205
REMARK   80  A    between atoms: _208  and  _209
REMARK   81  A    between atoms: _214  and  _216
REMARK   82  A    between atoms: _216  and  _217
REMARK   83  A    between atoms: _216  and  _219
REMARK   84  A    between atoms: _219  and  _220
REMARK   85  A    between atoms: _225  and  _227
REMARK   86  A    between atoms: _227  and  _228
REMARK   87  A    between atoms: _227  and  _230
REMARK   88  A    between atoms: _230  and  _231
REMARK   89  A    between atoms: _237  and  _239
REMARK   90  A    between atoms: _239  and  _240
REMARK   91  A    between atoms: _239  and  _242
REMARK   92  A    between atoms: _242  and  _243
REMARK   93  A    between atoms: _243  and  _244
REMARK   94  A    between atoms: _247  and  _249
REMARK   95  A    between atoms: _249  and  _250
REMARK   96  A    between atoms: _249  and  _252
REMARK   97  A    between atoms: _255  and  _257
REMARK   98  A    between atoms: _257  and  _258
REMARK   99  A    between atoms: _261  and  _263
REMARK  100  A    between atoms: _263  and  _264
REMARK  101  A    between atoms: _263  and  _266
REMARK  102  A    between atoms: _266  and  _267
REMARK  103  A    between atoms: _270  and  _272
REMARK  104  A    between atoms: _272  and  _273
REMARK  105  A    between atoms: _275  and  _277
REMARK  106  A    between atoms: _277  and  _278
REMARK  107  A    between atoms: _277  and  _280
REMARK  108  A    between atoms: _280  and  _281
REMARK  109  A    between atoms: _281  and  _282
REMARK  110  A    between atoms: _284  and  _286
REMARK  111  A    between atoms: _286  and  _287
REMARK  112  A    between atoms: _286  and  _289
REMARK  113  A    between atoms: _289  and  _290
REMARK  114  A    between atoms: _292  and  _294
REMARK  115  A    between atoms: _294  and  _295
REMARK  116  A    between atoms: _294  and  _297
REMARK  117  A    between atoms: _297  and  _298
REMARK  118  A    between atoms: _301  and  _303
REMARK  119  A    between atoms: _303  and  _304
REMARK  120  A    between atoms: _303  and  _306
REMARK  121  A    between atoms: _306  and  _307
REMARK  122  A    between atoms: _309  and  _311
REMARK  123  A    between atoms: _311  and  _312
REMARK  124  A    between atoms: _311  and  _314
REMARK  125  A    between atoms: _314  and  _315
REMARK  126  A    between atoms: _318  and  _320
REMARK  127  A    between atoms: _320  and  _321
REMARK  128  A    between atoms: _320  and  _323
REMARK  129  A    between atoms: _323  and  _324
REMARK  130  A    between atoms: _327  and  _329
REMARK  131  A    between atoms: _329  and  _330
REMARK  132  A    between atoms: _329  and  _332
REMARK  133  A    between atoms: _332  and  _333
REMARK  134  A    between atoms: _336  and  _338
REMARK  135  A    between atoms: _338  and  _339
REMARK  136  A    between atoms: _338  and  _341
REMARK  137  A    between atoms: _341  and  _342
REMARK  138  A    between atoms: _347  and  _349
REMARK  139  A    between atoms: _349  and  _350
REMARK  140  A    between atoms: _349  and  _352
REMARK  141  A    between atoms: _352  and  _353
REMARK  142  A    between atoms: _353  and  _354
REMARK  143  A    between atoms: _356  and  _358
REMARK  144  A    between atoms: _358  and  _359
REMARK  145  A    between atoms: _358  and  _361
REMARK  146  A    between atoms: _363  and  _365
REMARK  147  A    between atoms: _365  and  _366
REMARK  148  A    between atoms: _365  and  _368
REMARK  149  A    between atoms: _368  and  _369
REMARK  150  A    between atoms: _372  and  _374
REMARK  151  A    between atoms: _374  and  _375
REMARK  152  A    between atoms: _374  and  _377
REMARK  153  A    between atoms: _377  and  _378
REMARK  154  A    between atoms: _378  and  _379
REMARK  155  A    between atoms: _382  and  _384
REMARK  156  A    between atoms: _384  and  _385
REMARK  157  A    between atoms: _384  and  _387
REMARK  158  A    between atoms: _387  and  _388
REMARK  159  A    between atoms: _393  and  _395
REMARK  160  A    between atoms: _395  and  _396
REMARK  161  A    between atoms: _395  and  _398
REMARK  162  A    between atoms: _400  and  _402
REMARK  163  A    between atoms: _402  and  _403
REMARK  164  A    between atoms: _402  and  _405
REMARK  165  A    between atoms: _405  and  _406
REMARK  166  A    between atoms: _411  and  _413
REMARK  167  A    between atoms: _413  and  _414
REMARK  168  A    between atoms: _413  and  _416
REMARK  169  A    between atoms: _416  and  _417
REMARK  170  A    between atoms: _420  and  _422
REMARK  171  A    between atoms: _422  and  _423
REMARK  172  A    between atoms: _422  and  _425
REMARK  173  A    between atoms: _425  and  _426
REMARK  174  A    between atoms: _428  and  _430
REMARK  175  A    between atoms: _430  and  _431
REMARK  176  A    between atoms: _430  and  _433
REMARK  177  A    between atoms: _433  and  _434
REMARK  178  A    between atoms: _437  and  _439
REMARK  179  A    between atoms: _439  and  _440
REMARK  180  A    between atoms: _439  and  _442
REMARK  181  A    between atoms: _445  and  _447
REMARK  182  A    between atoms: _447  and  _448
REMARK  183  A    between atoms: _447  and  _450
REMARK  184  A    between atoms: _450  and  _451
REMARK  185  A    between atoms: _451  and  _452
REMARK  186  A    between atoms: _452  and  _453
REMARK  187  A    between atoms: _462  and  _464
REMARK  188  A    between atoms: _464  and  _465
REMARK  189  A    between atoms: _464  and  _467
REMARK  190  A    between atoms: _467  and  _468
REMARK  191  A    between atoms: _474  and  _476
REMARK  192  A    between atoms: _476  and  _477
REMARK  193  A    between atoms: _476  and  _479
REMARK  194  A    between atoms: _479  and  _480
REMARK                            x       y       z     vdW  Elec       q    Type
REMARK                         _______ _______ _______ _____ _____    ______ ____
ROOT
ATOM      1  O   HOH     1      43.456  -2.210 100.522  0.00  0.00    +0.000 OA
ENDROOT
TORSDOF 0
REMARK  Name = ../refined-set-2016/2p4s/2p4s_pocket.pdb
REMARK  194 active torsions:
REMARK  status: ('A' for Active; 'I' for Inactive)
REMARK    1  A    between atoms: _1  and  _3
REMARK    2  A    between atoms: _3  and  _4
REMARK    3  A    between atoms: _6  and  _8
REMARK    4  A    between atoms: _8  and  _9
REMARK    5  A    between atoms: _8  and  _11
REMARK    6  A    between atoms: _11  and  _12
REMARK    7  A    between atoms: _14  and  _16
REMARK    8  A    between atoms: _16  and  _17
REMARK    9  A    between atoms: _19  and  _21
REMARK   10  A    between atoms: _21  and  _22
REMARK   11  A    between atoms: _21  and  _24
REMARK   12  A    between atoms: _27  and  _29
REMARK   13  A    between atoms: _29  and  _30
REMARK   14  A    between atoms: _33  and  _35
REMARK   15  A    between atoms: _35  and  _36
REMARK   16  A    between atoms: _35  and  _38
REMARK   17  A    between atoms: _38  and  _39
REMARK   18  A    between atoms: _44  and  _46
REMARK   19  A    between atoms: _46  and  _47
REMARK   20  A    between atoms: _46  and  _49
REMARK   21  A    between atoms: _49  and  _50
REMARK   22  A    between atoms: _50  and  _51
REMARK   23  A    between atoms: _51  and  _52
REMARK   24  A    between atoms: _61  and  _63
REMARK   25  A    between atoms: _63  and  _64
REMARK   26  A    between atoms: _63  and  _66
REMARK   27  A    between atoms: _66  and  _67
REMARK   28  A    between atoms: _73  and  _75
REMARK   29  A    between atoms: _75  and  _76
REMARK   30  A    between atoms: _75  and  _78
REMARK   31  A    between atoms: _78  and  _79
REMARK   32  A    between atoms: _84  and  _86
REMARK   33  A    between atoms: _86  and  _87
REMARK   34  A    between atoms: _86  and  _89
REMARK   35  A    between atoms: _89  and  _90
REMARK   36  A    between atoms: _95  and  _97
REMARK   37  A    between atoms: _97  and  _98
REMARK   38  A    between atoms: _97  and  _100
REMARK   39  A    between atoms: _100  and  _101
REMARK   40  A    between atoms: _106  and  _107
REMARK   41  A    between atoms: _109  and  _111
REMARK   42  A    between atoms: _111  and  _112
REMARK   43  A    between atoms: _111  and  _114
REMARK   44  A    between atoms: _114  and  _115
REMARK   45  A    between atoms: _115  and  _116
REMARK   46  A    between atoms: _119  and  _121
REMARK   47  A    between atoms: _121  and  _122
REMARK   48  A    between atoms: _121  and  _124
REMARK   49  A    between atoms: _124  and  _125
REMARK   50  A    between atoms: _130  and  _132
REMARK   51  A    between atoms: _132  and  _133
REMARK   52  A    between atoms: _136  and  _138
REMARK   53  A    between atoms: _138  and  _139
REMARK   54  A    between atoms: _142  and  _144
REMARK   55  A    between atoms: _144  and  _145
REMARK   56  A    between atoms: _147  and  _149
REMARK   57  A    between atoms: _149  and  _150
REMARK   58  A    between atoms: _152  and  _154
REMARK   59  A    between atoms: _154  and  _155
REMARK   60  A    between atoms: _158  and  _160
REMARK   61  A    between atoms: _160  and  _161
REMARK   62  A    between atoms: _160  and  _163
REMARK   63  A    between atoms: _163  and  _164
REMARK   64  A    between atoms: _169  and  _170
REMARK   65  A    between atoms: _172  and  _174
REMARK   66  A    between atoms: _174  and  _175
REMARK   67  A    between atoms: _174  and  _177
REMARK   68  A    between atoms: _177  and  _178
REMARK   69  A    between atoms: _181  and  _183
REMARK   70  A    between atoms: _183  and  _184
REMARK   71  A    between atoms: _183  and  _186
REMARK   72  A    between atoms: _188  and  _190
REMARK   73  A    between atoms: _190  and  _191
REMARK   74  A    between atoms: _190  and  _193
REMARK   75  A    between atoms: _193  and  _194
REMARK   76  A    between atoms: _197  and  _199
REMARK   77  A    between atoms: _199  and  _200
REMARK   78  A    between atoms: _202  and  _204
REMARK   79  A    between atoms: _204  and  _205
REMARK   80  A    between atoms: _208  and  _209
REMARK   81  A    between atoms: _214  and  _216
REMARK   82  A    between atoms: _216  and  _217
REMARK   83  A    between atoms: _216  and  _219
REMARK   84  A    between atoms: _219  and  _220
REMARK   85  A    between atoms: _225  and  _227
REMARK   86  A    between atoms: _227  and  _228
REMARK   87  A    between atoms: _227  and  _230
REMARK   88  A    between atoms: _230  and  _231
REMARK   89  A    between atoms: _237  and  _239
REMARK   90  A    between atoms: _239  and  _240
REMARK   91  A    between atoms: _239  and  _242
REMARK   92  A    between atoms: _242  and  _243
REMARK   93  A    between atoms: _243  and  _244
REMARK   94  A    between atoms: _247  and  _249
REMARK   95  A    between atoms: _249  and  _250
REMARK   96  A    between atoms: _249  and  _252
REMARK   97  A    between atoms: _255  and  _257
REMARK   98  A    between atoms: _257  and  _258
REMARK   99  A    between atoms: _261  and  _263
REMARK  100  A    between atoms: _263  and  _264
REMARK  101  A    between atoms: _263  and  _266
REMARK  102  A    between atoms: _266  and  _267
REMARK  103  A    between atoms: _270  and  _272
REMARK  104  A    between atoms: _272  and  _273
REMARK  105  A    between atoms: _275  and  _277
REMARK  106  A    between atoms: _277  and  _278
REMARK  107  A    between atoms: _277  and  _280
REMARK  108  A    between atoms: _280  and  _281
REMARK  109  A    between atoms: _281  and  _282
REMARK  110  A    between atoms: _284  and  _286
REMARK  111  A    between atoms: _286  and  _287
REMARK  112  A    between atoms: _286  and  _289
REMARK  113  A    between atoms: _289  and  _290
REMARK  114  A    between atoms: _292  and  _294
REMARK  115  A    between atoms: _294  and  _295
REMARK  116  A    between atoms: _294  and  _297
REMARK  117  A    between atoms: _297  and  _298
REMARK  118  A    between atoms: _301  and  _303
REMARK  119  A    between atoms: _303  and  _304
REMARK  120  A    between atoms: _303  and  _306
REMARK  121  A    between atoms: _306  and  _307
REMARK  122  A    between atoms: _309  and  _311
REMARK  123  A    between atoms: _311  and  _312
REMARK  124  A    between atoms: _311  and  _314
REMARK  125  A    between atoms: _314  and  _315
REMARK  126  A    between atoms: _318  and  _320
REMARK  127  A    between atoms: _320  and  _321
REMARK  128  A    between atoms: _320  and  _323
REMARK  129  A    between atoms: _323  and  _324
REMARK  130  A    between atoms: _327  and  _329
REMARK  131  A    between atoms: _329  and  _330
REMARK  132  A    between atoms: _329  and  _332
REMARK  133  A    between atoms: _332  and  _333
REMARK  134  A    between atoms: _336  and  _338
REMARK  135  A    between atoms: _338  and  _339
REMARK  136  A    between atoms: _338  and  _341
REMARK  137  A    between atoms: _341  and  _342
REMARK  138  A    between atoms: _347  and  _349
REMARK  139  A    between atoms: _349  and  _350
REMARK  140  A    between atoms: _349  and  _352
REMARK  141  A    between atoms: _352  and  _353
REMARK  142  A    between atoms: _353  and  _354
REMARK  143  A    between atoms: _356  and  _358
REMARK  144  A    between atoms: _358  and  _359
REMARK  145  A    between atoms: _358  and  _361
REMARK  146  A    between atoms: _363  and  _365
REMARK  147  A    between atoms: _365  and  _366
REMARK  148  A    between atoms: _365  and  _368
REMARK  149  A    between atoms: _368  and  _369
REMARK  150  A    between atoms: _372  and  _374
REMARK  151  A    between atoms: _374  and  _375
REMARK  152  A    between atoms: _374  and  _377
REMARK  153  A    between atoms: _377  and  _378
REMARK  154  A    between atoms: _378  and  _379
REMARK  155  A    between atoms: _382  and  _384
REMARK  156  A    between atoms: _384  and  _385
REMARK  157  A    between atoms: _384  and  _387
REMARK  158  A    between atoms: _387  and  _388
REMARK  159  A    between atoms: _393  and  _395
REMARK  160  A    between atoms: _395  and  _396
REMARK  161  A    between atoms: _395  and  _398
REMARK  162  A    between atoms: _400  and  _402
REMARK  163  A    between atoms: _402  and  _403
REMARK  164  A    between atoms: _402  and  _405
REMARK  165  A    between atoms: _405  and  _406
REMARK  166  A    between atoms: _411  and  _413
REMARK  167  A    between atoms: _413  and  _414
REMARK  168  A    between atoms: _413  and  _416
REMARK  169  A    between atoms: _416  and  _417
REMARK  170  A    between atoms: _420  and  _422
REMARK  171  A    between atoms: _422  and  _423
REMARK  172  A    between atoms: _422  and  _425
REMARK  173  A    between atoms: _425  and  _426
REMARK  174  A    between atoms: _428  and  _430
REMARK  175  A    between atoms: _430  and  _431
REMARK  176  A    between atoms: _430  and  _433
REMARK  177  A    between atoms: _433  and  _434
REMARK  178  A    between atoms: _437  and  _439
REMARK  179  A    between atoms: _439  and  _440
REMARK  180  A    between atoms: _439  and  _442
REMARK  181  A    between atoms: _445  and  _447
REMARK  182  A    between atoms: _447  and  _448
REMARK  183  A    between atoms: _447  and  _450
REMARK  184  A    between atoms: _450  and  _451
REMARK  185  A    between atoms: _451  and  _452
REMARK  186  A    between atoms: _452  and  _453
REMARK  187  A    between atoms: _462  and  _464
REMARK  188  A    between atoms: _464  and  _465
REMARK  189  A    between atoms: _464  and  _467
REMARK  190  A    between atoms: _467  and  _468
REMARK  191  A    between atoms: _474  and  _476
REMARK  192  A    between atoms: _476  and  _477
REMARK  193  A    between atoms: _476  and  _479
REMARK  194  A    between atoms: _479  and  _480
REMARK                            x       y       z     vdW  Elec       q    Type
REMARK                         _______ _______ _______ _____ _____    ______ ____
ROOT
ATOM      1  O   HOH     1      40.703  -7.838 105.675  0.00  0.00    +0.000 OA
ENDROOT
TORSDOF 0
REMARK  Name = ../refined-set-2016/2p4s/2p4s_pocket.pdb
REMARK  194 active torsions:
REMARK  status: ('A' for Active; 'I' for Inactive)
REMARK    1  A    between atoms: _1  and  _3
REMARK    2  A    between atoms: _3  and  _4
REMARK    3  A    between atoms: _6  and  _8
REMARK    4  A    between atoms: _8  and  _9
REMARK    5  A    between atoms: _8  and  _11
REMARK    6  A    between atoms: _11  and  _12
REMARK    7  A    between atoms: _14  and  _16
REMARK    8  A    between atoms: _16  and  _17
REMARK    9  A    between atoms: _19  and  _21
REMARK   10  A    between atoms: _21  and  _22
REMARK   11  A    between atoms: _21  and  _24
REMARK   12  A    between atoms: _27  and  _29
REMARK   13  A    between atoms: _29  and  _30
REMARK   14  A    between atoms: _33  and  _35
REMARK   15  A    between atoms: _35  and  _36
REMARK   16  A    between atoms: _35  and  _38
REMARK   17  A    between atoms: _38  and  _39
REMARK   18  A    between atoms: _44  and  _46
REMARK   19  A    between atoms: _46  and  _47
REMARK   20  A    between atoms: _46  and  _49
REMARK   21  A    between atoms: _49  and  _50
REMARK   22  A    between atoms: _50  and  _51
REMARK   23  A    between atoms: _51  and  _52
REMARK   24  A    between atoms: _61  and  _63
REMARK   25  A    between atoms: _63  and  _64
REMARK   26  A    between atoms: _63  and  _66
REMARK   27  A    between atoms: _66  and  _67
REMARK   28  A    between atoms: _73  and  _75
REMARK   29  A    between atoms: _75  and  _76
REMARK   30  A    between atoms: _75  and  _78
REMARK   31  A    between atoms: _78  and  _79
REMARK   32  A    between atoms: _84  and  _86
REMARK   33  A    between atoms: _86  and  _87
REMARK   34  A    between atoms: _86  and  _89
REMARK   35  A    between atoms: _89  and  _90
REMARK   36  A    between atoms: _95  and  _97
REMARK   37  A    between atoms: _97  and  _98
REMARK   38  A    between atoms: _97  and  _100
REMARK   39  A    between atoms: _100  and  _101
REMARK   40  A    between atoms: _106  and  _107
REMARK   41  A    between atoms: _109  and  _111
REMARK   42  A    between atoms: _111  and  _112
REMARK   43  A    between atoms: _111  and  _114
REMARK   44  A    between atoms: _114  and  _115
REMARK   45  A    between atoms: _115  and  _116
REMARK   46  A    between atoms: _119  and  _121
REMARK   47  A    between atoms: _121  and  _122
REMARK   48  A    between atoms: _121  and  _124
REMARK   49  A    between atoms: _124  and  _125
REMARK   50  A    between atoms: _130  and  _132
REMARK   51  A    between atoms: _132  and  _133
REMARK   52  A    between atoms: _136  and  _138
REMARK   53  A    between atoms: _138  and  _139
REMARK   54  A    between atoms: _142  and  _144
REMARK   55  A    between atoms: _144  and  _145
REMARK   56  A    between atoms: _147  and  _149
REMARK   57  A    between atoms: _149  and  _150
REMARK   58  A    between atoms: _152  and  _154
REMARK   59  A    between atoms: _154  and  _155
REMARK   60  A    between atoms: _158  and  _160
REMARK   61  A    between atoms: _160  and  _161
REMARK   62  A    between atoms: _160  and  _163
REMARK   63  A    between atoms: _163  and  _164
REMARK   64  A    between atoms: _169  and  _170
REMARK   65  A    between atoms: _172  and  _174
REMARK   66  A    between atoms: _174  and  _175
REMARK   67  A    between atoms: _174  and  _177
REMARK   68  A    between atoms: _177  and  _178
REMARK   69  A    between atoms: _181  and  _183
REMARK   70  A    between atoms: _183  and  _184
REMARK   71  A    between atoms: _183  and  _186
REMARK   72  A    between atoms: _188  and  _190
REMARK   73  A    between atoms: _190  and  _191
REMARK   74  A    between atoms: _190  and  _193
REMARK   75  A    between atoms: _193  and  _194
REMARK   76  A    between atoms: _197  and  _199
REMARK   77  A    between atoms: _199  and  _200
REMARK   78  A    between atoms: _202  and  _204
REMARK   79  A    between atoms: _204  and  _205
REMARK   80  A    between atoms: _208  and  _209
REMARK   81  A    between atoms: _214  and  _216
REMARK   82  A    between atoms: _216  and  _217
REMARK   83  A    between atoms: _216  and  _219
REMARK   84  A    between atoms: _219  and  _220
REMARK   85  A    between atoms: _225  and  _227
REMARK   86  A    between atoms: _227  and  _228
REMARK   87  A    between atoms: _227  and  _230
REMARK   88  A    between atoms: _230  and  _231
REMARK   89  A    between atoms: _237  and  _239
REMARK   90  A    between atoms: _239  and  _240
REMARK   91  A    between atoms: _239  and  _242
REMARK   92  A    between atoms: _242  and  _243
REMARK   93  A    between atoms: _243  and  _244
REMARK   94  A    between atoms: _247  and  _249
REMARK   95  A    between atoms: _249  and  _250
REMARK   96  A    between atoms: _249  and  _252
REMARK   97  A    between atoms: _255  and  _257
REMARK   98  A    between atoms: _257  and  _258
REMARK   99  A    between atoms: _261  and  _263
REMARK  100  A    between atoms: _263  and  _264
REMARK  101  A    between atoms: _263  and  _266
REMARK  102  A    between atoms: _266  and  _267
REMARK  103  A    between atoms: _270  and  _272
REMARK  104  A    between atoms: _272  and  _273
REMARK  105  A    between atoms: _275  and  _277
REMARK  106  A    between atoms: _277  and  _278
REMARK  107  A    between atoms: _277  and  _280
REMARK  108  A    between atoms: _280  and  _281
REMARK  109  A    between atoms: _281  and  _282
REMARK  110  A    between atoms: _284  and  _286
REMARK  111  A    between atoms: _286  and  _287
REMARK  112  A    between atoms: _286  and  _289
REMARK  113  A    between atoms: _289  and  _290
REMARK  114  A    between atoms: _292  and  _294
REMARK  115  A    between atoms: _294  and  _295
REMARK  116  A    between atoms: _294  and  _297
REMARK  117  A    between atoms: _297  and  _298
REMARK  118  A    between atoms: _301  and  _303
REMARK  119  A    between atoms: _303  and  _304
REMARK  120  A    between atoms: _303  and  _306
REMARK  121  A    between atoms: _306  and  _307
REMARK  122  A    between atoms: _309  and  _311
REMARK  123  A    between atoms: _311  and  _312
REMARK  124  A    between atoms: _311  and  _314
REMARK  125  A    between atoms: _314  and  _315
REMARK  126  A    between atoms: _318  and  _320
REMARK  127  A    between atoms: _320  and  _321
REMARK  128  A    between atoms: _320  and  _323
REMARK  129  A    between atoms: _323  and  _324
REMARK  130  A    between atoms: _327  and  _329
REMARK  131  A    between atoms: _329  and  _330
REMARK  132  A    between atoms: _329  and  _332
REMARK  133  A    between atoms: _332  and  _333
REMARK  134  A    between atoms: _336  and  _338
REMARK  135  A    between atoms: _338  and  _339
REMARK  136  A    between atoms: _338  and  _341
REMARK  137  A    between atoms: _341  and  _342
REMARK  138  A    between atoms: _347  and  _349
REMARK  139  A    between atoms: _349  and  _350
REMARK  140  A    between atoms: _349  and  _352
REMARK  141  A    between atoms: _352  and  _353
REMARK  142  A    between atoms: _353  and  _354
REMARK  143  A    between atoms: _356  and  _358
REMARK  144  A    between atoms: _358  and  _359
REMARK  145  A    between atoms: _358  and  _361
REMARK  146  A    between atoms: _363  and  _365
REMARK  147  A    between atoms: _365  and  _366
REMARK  148  A    between atoms: _365  and  _368
REMARK  149  A    between atoms: _368  and  _369
REMARK  150  A    between atoms: _372  and  _374
REMARK  151  A    between atoms: _374  and  _375
REMARK  152  A    between atoms: _374  and  _377
REMARK  153  A    between atoms: _377  and  _378
REMARK  154  A    between atoms: _378  and  _379
REMARK  155  A    between atoms: _382  and  _384
REMARK  156  A    between atoms: _384  and  _385
REMARK  157  A    between atoms: _384  and  _387
REMARK  158  A    between atoms: _387  and  _388
REMARK  159  A    between atoms: _393  and  _395
REMARK  160  A    between atoms: _395  and  _396
REMARK  161  A    between atoms: _395  and  _398
REMARK  162  A    between atoms: _400  and  _402
REMARK  163  A    between atoms: _402  and  _403
REMARK  164  A    between atoms: _402  and  _405
REMARK  165  A    between atoms: _405  and  _406
REMARK  166  A    between atoms: _411  and  _413
REMARK  167  A    between atoms: _413  and  _414
REMARK  168  A    between atoms: _413  and  _416
REMARK  169  A    between atoms: _416  and  _417
REMARK  170  A    between atoms: _420  and  _422
REMARK  171  A    between atoms: _422  and  _423
REMARK  172  A    between atoms: _422  and  _425
REMARK  173  A    between atoms: _425  and  _426
REMARK  174  A    between atoms: _428  and  _430
REMARK  175  A    between atoms: _430  and  _431
REMARK  176  A    between atoms: _430  and  _433
REMARK  177  A    between atoms: _433  and  _434
REMARK  178  A    between atoms: _437  and  _439
REMARK  179  A    between atoms: _439  and  _440
REMARK  180  A    between atoms: _439  and  _442
REMARK  181  A    between atoms: _445  and  _447
REMARK  182  A    between atoms: _447  and  _448
REMARK  183  A    between atoms: _447  and  _450
REMARK  184  A    between atoms: _450  and  _451
REMARK  185  A    between atoms: _451  and  _452
REMARK  186  A    between atoms: _452  and  _453
REMARK  187  A    between atoms: _462  and  _464
REMARK  188  A    between atoms: _464  and  _465
REMARK  189  A    between atoms: _464  and  _467
REMARK  190  A    between atoms: _467  and  _468
REMARK  191  A    between atoms: _474  and  _476
REMARK  192  A    between atoms: _476  and  _477
REMARK  193  A    between atoms: _476  and  _479
REMARK  194  A    between atoms: _479  and  _480
REMARK                            x       y       z     vdW  Elec       q    Type
REMARK                         _______ _______ _______ _____ _____    ______ ____
ROOT
ATOM      1  O   HOH     1      45.624   5.054 109.665  0.00  0.00    +0.000 OA
ENDROOT
TORSDOF 0
REMARK  Name = ../refined-set-2016/2p4s/2p4s_pocket.pdb
REMARK  194 active torsions:
REMARK  status: ('A' for Active; 'I' for Inactive)
REMARK    1  A    between atoms: _1  and  _3
REMARK    2  A    between atoms: _3  and  _4
REMARK    3  A    between atoms: _6  and  _8
REMARK    4  A    between atoms: _8  and  _9
REMARK    5  A    between atoms: _8  and  _11
REMARK    6  A    between atoms: _11  and  _12
REMARK    7  A    between atoms: _14  and  _16
REMARK    8  A    between atoms: _16  and  _17
REMARK    9  A    between atoms: _19  and  _21
REMARK   10  A    between atoms: _21  and  _22
REMARK   11  A    between atoms: _21  and  _24
REMARK   12  A    between atoms: _27  and  _29
REMARK   13  A    between atoms: _29  and  _30
REMARK   14  A    between atoms: _33  and  _35
REMARK   15  A    between atoms: _35  and  _36
REMARK   16  A    between atoms: _35  and  _38
REMARK   17  A    between atoms: _38  and  _39
REMARK   18  A    between atoms: _44  and  _46
REMARK   19  A    between atoms: _46  and  _47
REMARK   20  A    between atoms: _46  and  _49
REMARK   21  A    between atoms: _49  and  _50
REMARK   22  A    between atoms: _50  and  _51
REMARK   23  A    between atoms: _51  and  _52
REMARK   24  A    between atoms: _61  and  _63
REMARK   25  A    between atoms: _63  and  _64
REMARK   26  A    between atoms: _63  and  _66
REMARK   27  A    between atoms: _66  and  _67
REMARK   28  A    between atoms: _73  and  _75
REMARK   29  A    between atoms: _75  and  _76
REMARK   30  A    between atoms: _75  and  _78
REMARK   31  A    between atoms: _78  and  _79
REMARK   32  A    between atoms: _84  and  _86
REMARK   33  A    between atoms: _86  and  _87
REMARK   34  A    between atoms: _86  and  _89
REMARK   35  A    between atoms: _89  and  _90
REMARK   36  A    between atoms: _95  and  _97
REMARK   37  A    between atoms: _97  and  _98
REMARK   38  A    between atoms: _97  and  _100
REMARK   39  A    between atoms: _100  and  _101
REMARK   40  A    between atoms: _106  and  _107
REMARK   41  A    between atoms: _109  and  _111
REMARK   42  A    between atoms: _111  and  _112
REMARK   43  A    between atoms: _111  and  _114
REMARK   44  A    between atoms: _114  and  _115
REMARK   45  A    between atoms: _115  and  _116
REMARK   46  A    between atoms: _119  and  _121
REMARK   47  A    between atoms: _121  and  _122
REMARK   48  A    between atoms: _121  and  _124
REMARK   49  A    between atoms: _124  and  _125
REMARK   50  A    between atoms: _130  and  _132
REMARK   51  A    between atoms: _132  and  _133
REMARK   52  A    between atoms: _136  and  _138
REMARK   53  A    between atoms: _138  and  _139
REMARK   54  A    between atoms: _142  and  _144
REMARK   55  A    between atoms: _144  and  _145
REMARK   56  A    between atoms: _147  and  _149
REMARK   57  A    between atoms: _149  and  _150
REMARK   58  A    between atoms: _152  and  _154
REMARK   59  A    between atoms: _154  and  _155
REMARK   60  A    between atoms: _158  and  _160
REMARK   61  A    between atoms: _160  and  _161
REMARK   62  A    between atoms: _160  and  _163
REMARK   63  A    between atoms: _163  and  _164
REMARK   64  A    between atoms: _169  and  _170
REMARK   65  A    between atoms: _172  and  _174
REMARK   66  A    between atoms: _174  and  _175
REMARK   67  A    between atoms: _174  and  _177
REMARK   68  A    between atoms: _177  and  _178
REMARK   69  A    between atoms: _181  and  _183
REMARK   70  A    between atoms: _183  and  _184
REMARK   71  A    between atoms: _183  and  _186
REMARK   72  A    between atoms: _188  and  _190
REMARK   73  A    between atoms: _190  and  _191
REMARK   74  A    between atoms: _190  and  _193
REMARK   75  A    between atoms: _193  and  _194
REMARK   76  A    between atoms: _197  and  _199
REMARK   77  A    between atoms: _199  and  _200
REMARK   78  A    between atoms: _202  and  _204
REMARK   79  A    between atoms: _204  and  _205
REMARK   80  A    between atoms: _208  and  _209
REMARK   81  A    between atoms: _214  and  _216
REMARK   82  A    between atoms: _216  and  _217
REMARK   83  A    between atoms: _216  and  _219
REMARK   84  A    between atoms: _219  and  _220
REMARK   85  A    between atoms: _225  and  _227
REMARK   86  A    between atoms: _227  and  _228
REMARK   87  A    between atoms: _227  and  _230
REMARK   88  A    between atoms: _230  and  _231
REMARK   89  A    between atoms: _237  and  _239
REMARK   90  A    between atoms: _239  and  _240
REMARK   91  A    between atoms: _239  and  _242
REMARK   92  A    between atoms: _242  and  _243
REMARK   93  A    between atoms: _243  and  _244
REMARK   94  A    between atoms: _247  and  _249
REMARK   95  A    between atoms: _249  and  _250
REMARK   96  A    between atoms: _249  and  _252
REMARK   97  A    between atoms: _255  and  _257
REMARK   98  A    between atoms: _257  and  _258
REMARK   99  A    between atoms: _261  and  _263
REMARK  100  A    between atoms: _263  and  _264
REMARK  101  A    between atoms: _263  and  _266
REMARK  102  A    between atoms: _266  and  _267
REMARK  103  A    between atoms: _270  and  _272
REMARK  104  A    between atoms: _272  and  _273
REMARK  105  A    between atoms: _275  and  _277
REMARK  106  A    between atoms: _277  and  _278
REMARK  107  A    between atoms: _277  and  _280
REMARK  108  A    between atoms: _280  and  _281
REMARK  109  A    between atoms: _281  and  _282
REMARK  110  A    between atoms: _284  and  _286
REMARK  111  A    between atoms: _286  and  _287
REMARK  112  A    between atoms: _286  and  _289
REMARK  113  A    between atoms: _289  and  _290
REMARK  114  A    between atoms: _292  and  _294
REMARK  115  A    between atoms: _294  and  _295
REMARK  116  A    between atoms: _294  and  _297
REMARK  117  A    between atoms: _297  and  _298
REMARK  118  A    between atoms: _301  and  _303
REMARK  119  A    between atoms: _303  and  _304
REMARK  120  A    between atoms: _303  and  _306
REMARK  121  A    between atoms: _306  and  _307
REMARK  122  A    between atoms: _309  and  _311
REMARK  123  A    between atoms: _311  and  _312
REMARK  124  A    between atoms: _311  and  _314
REMARK  125  A    between atoms: _314  and  _315
REMARK  126  A    between atoms: _318  and  _320
REMARK  127  A    between atoms: _320  and  _321
REMARK  128  A    between atoms: _320  and  _323
REMARK  129  A    between atoms: _323  and  _324
REMARK  130  A    between atoms: _327  and  _329
REMARK  131  A    between atoms: _329  and  _330
REMARK  132  A    between atoms: _329  and  _332
REMARK  133  A    between atoms: _332  and  _333
REMARK  134  A    between atoms: _336  and  _338
REMARK  135  A    between atoms: _338  and  _339
REMARK  136  A    between atoms: _338  and  _341
REMARK  137  A    between atoms: _341  and  _342
REMARK  138  A    between atoms: _347  and  _349
REMARK  139  A    between atoms: _349  and  _350
REMARK  140  A    between atoms: _349  and  _352
REMARK  141  A    between atoms: _352  and  _353
REMARK  142  A    between atoms: _353  and  _354
REMARK  143  A    between atoms: _356  and  _358
REMARK  144  A    between atoms: _358  and  _359
REMARK  145  A    between atoms: _358  and  _361
REMARK  146  A    between atoms: _363  and  _365
REMARK  147  A    between atoms: _365  and  _366
REMARK  148  A    between atoms: _365  and  _368
REMARK  149  A    between atoms: _368  and  _369
REMARK  150  A    between atoms: _372  and  _374
REMARK  151  A    between atoms: _374  and  _375
REMARK  152  A    between atoms: _374  and  _377
REMARK  153  A    between atoms: _377  and  _378
REMARK  154  A    between atoms: _378  and  _379
REMARK  155  A    between atoms: _382  and  _384
REMARK  156  A    between atoms: _384  and  _385
REMARK  157  A    between atoms: _384  and  _387
REMARK  158  A    between atoms: _387  and  _388
REMARK  159  A    between atoms: _393  and  _395
REMARK  160  A    between atoms: _395  and  _396
REMARK  161  A    between atoms: _395  and  _398
REMARK  162  A    between atoms: _400  and  _402
REMARK  163  A    between atoms: _402  and  _403
REMARK  164  A    between atoms: _402  and  _405
REMARK  165  A    between atoms: _405  and  _406
REMARK  166  A    between atoms: _411  and  _413
REMARK  167  A    between atoms: _413  and  _414
REMARK  168  A    between atoms: _413  and  _416
REMARK  169  A    between atoms: _416  and  _417
REMARK  170  A    between atoms: _420  and  _422
REMARK  171  A    between atoms: _422  and  _423
REMARK  172  A    between atoms: _422  and  _425
REMARK  173  A    between atoms: _425  and  _426
REMARK  174  A    between atoms: _428  and  _430
REMARK  175  A    between atoms: _430  and  _431
REMARK  176  A    between atoms: _430  and  _433
REMARK  177  A    between atoms: _433  and  _434
REMARK  178  A    between atoms: _437  and  _439
REMARK  179  A    between atoms: _439  and  _440
REMARK  180  A    between atoms: _439  and  _442
REMARK  181  A    between atoms: _445  and  _447
REMARK  182  A    between atoms: _447  and  _448
REMARK  183  A    between atoms: _447  and  _450
REMARK  184  A    between atoms: _450  and  _451
REMARK  185  A    between atoms: _451  and  _452
REMARK  186  A    between atoms: _452  and  _453
REMARK  187  A    between atoms: _462  and  _464
REMARK  188  A    between atoms: _464  and  _465
REMARK  189  A    between atoms: _464  and  _467
REMARK  190  A    between atoms: _467  and  _468
REMARK  191  A    between atoms: _474  and  _476
REMARK  192  A    between atoms: _476  and  _477
REMARK  193  A    between atoms: _476  and  _479
REMARK  194  A    between atoms: _479  and  _480
REMARK                            x       y       z     vdW  Elec       q    Type
REMARK                         _______ _______ _______ _____ _____    ______ ____
ROOT
ATOM      1  O   HOH     1      32.685  -1.645 108.462  0.00  0.00    +0.000 OA
ENDROOT
TORSDOF 0
REMARK  Name = ../refined-set-2016/2p4s/2p4s_pocket.pdb
REMARK  194 active torsions:
REMARK  status: ('A' for Active; 'I' for Inactive)
REMARK    1  A    between atoms: _1  and  _3
REMARK    2  A    between atoms: _3  and  _4
REMARK    3  A    between atoms: _6  and  _8
REMARK    4  A    between atoms: _8  and  _9
REMARK    5  A    between atoms: _8  and  _11
REMARK    6  A    between atoms: _11  and  _12
REMARK    7  A    between atoms: _14  and  _16
REMARK    8  A    between atoms: _16  and  _17
REMARK    9  A    between atoms: _19  and  _21
REMARK   10  A    between atoms: _21  and  _22
REMARK   11  A    between atoms: _21  and  _24
REMARK   12  A    between atoms: _27  and  _29
REMARK   13  A    between atoms: _29  and  _30
REMARK   14  A    between atoms: _33  and  _35
REMARK   15  A    between atoms: _35  and  _36
REMARK   16  A    between atoms: _35  and  _38
REMARK   17  A    between atoms: _38  and  _39
REMARK   18  A    between atoms: _44  and  _46
REMARK   19  A    between atoms: _46  and  _47
REMARK   20  A    between atoms: _46  and  _49
REMARK   21  A    between atoms: _49  and  _50
REMARK   22  A    between atoms: _50  and  _51
REMARK   23  A    between atoms: _51  and  _52
REMARK   24  A    between atoms: _61  and  _63
REMARK   25  A    between atoms: _63  and  _64
REMARK   26  A    between atoms: _63  and  _66
REMARK   27  A    between atoms: _66  and  _67
REMARK   28  A    between atoms: _73  and  _75
REMARK   29  A    between atoms: _75  and  _76
REMARK   30  A    between atoms: _75  and  _78
REMARK   31  A    between atoms: _78  and  _79
REMARK   32  A    between atoms: _84  and  _86
REMARK   33  A    between atoms: _86  and  _87
REMARK   34  A    between atoms: _86  and  _89
REMARK   35  A    between atoms: _89  and  _90
REMARK   36  A    between atoms: _95  and  _97
REMARK   37  A    between atoms: _97  and  _98
REMARK   38  A    between atoms: _97  and  _100
REMARK   39  A    between atoms: _100  and  _101
REMARK   40  A    between atoms: _106  and  _107
REMARK   41  A    between atoms: _109  and  _111
REMARK   42  A    between atoms: _111  and  _112
REMARK   43  A    between atoms: _111  and  _114
REMARK   44  A    between atoms: _114  and  _115
REMARK   45  A    between atoms: _115  and  _116
REMARK   46  A    between atoms: _119  and  _121
REMARK   47  A    between atoms: _121  and  _122
REMARK   48  A    between atoms: _121  and  _124
REMARK   49  A    between atoms: _124  and  _125
REMARK   50  A    between atoms: _130  and  _132
REMARK   51  A    between atoms: _132  and  _133
REMARK   52  A    between atoms: _136  and  _138
REMARK   53  A    between atoms: _138  and  _139
REMARK   54  A    between atoms: _142  and  _144
REMARK   55  A    between atoms: _144  and  _145
REMARK   56  A    between atoms: _147  and  _149
REMARK   57  A    between atoms: _149  and  _150
REMARK   58  A    between atoms: _152  and  _154
REMARK   59  A    between atoms: _154  and  _155
REMARK   60  A    between atoms: _158  and  _160
REMARK   61  A    between atoms: _160  and  _161
REMARK   62  A    between atoms: _160  and  _163
REMARK   63  A    between atoms: _163  and  _164
REMARK   64  A    between atoms: _169  and  _170
REMARK   65  A    between atoms: _172  and  _174
REMARK   66  A    between atoms: _174  and  _175
REMARK   67  A    between atoms: _174  and  _177
REMARK   68  A    between atoms: _177  and  _178
REMARK   69  A    between atoms: _181  and  _183
REMARK   70  A    between atoms: _183  and  _184
REMARK   71  A    between atoms: _183  and  _186
REMARK   72  A    between atoms: _188  and  _190
REMARK   73  A    between atoms: _190  and  _191
REMARK   74  A    between atoms: _190  and  _193
REMARK   75  A    between atoms: _193  and  _194
REMARK   76  A    between atoms: _197  and  _199
REMARK   77  A    between atoms: _199  and  _200
REMARK   78  A    between atoms: _202  and  _204
REMARK   79  A    between atoms: _204  and  _205
REMARK   80  A    between atoms: _208  and  _209
REMARK   81  A    between atoms: _214  and  _216
REMARK   82  A    between atoms: _216  and  _217
REMARK   83  A    between atoms: _216  and  _219
REMARK   84  A    between atoms: _219  and  _220
REMARK   85  A    between atoms: _225  and  _227
REMARK   86  A    between atoms: _227  and  _228
REMARK   87  A    between atoms: _227  and  _230
REMARK   88  A    between atoms: _230  and  _231
REMARK   89  A    between atoms: _237  and  _239
REMARK   90  A    between atoms: _239  and  _240
REMARK   91  A    between atoms: _239  and  _242
REMARK   92  A    between atoms: _242  and  _243
REMARK   93  A    between atoms: _243  and  _244
REMARK   94  A    between atoms: _247  and  _249
REMARK   95  A    between atoms: _249  and  _250
REMARK   96  A    between atoms: _249  and  _252
REMARK   97  A    between atoms: _255  and  _257
REMARK   98  A    between atoms: _257  and  _258
REMARK   99  A    between atoms: _261  and  _263
REMARK  100  A    between atoms: _263  and  _264
REMARK  101  A    between atoms: _263  and  _266
REMARK  102  A    between atoms: _266  and  _267
REMARK  103  A    between atoms: _270  and  _272
REMARK  104  A    between atoms: _272  and  _273
REMARK  105  A    between atoms: _275  and  _277
REMARK  106  A    between atoms: _277  and  _278
REMARK  107  A    between atoms: _277  and  _280
REMARK  108  A    between atoms: _280  and  _281
REMARK  109  A    between atoms: _281  and  _282
REMARK  110  A    between atoms: _284  and  _286
REMARK  111  A    between atoms: _286  and  _287
REMARK  112  A    between atoms: _286  and  _289
REMARK  113  A    between atoms: _289  and  _290
REMARK  114  A    between atoms: _292  and  _294
REMARK  115  A    between atoms: _294  and  _295
REMARK  116  A    between atoms: _294  and  _297
REMARK  117  A    between atoms: _297  and  _298
REMARK  118  A    between atoms: _301  and  _303
REMARK  119  A    between atoms: _303  and  _304
REMARK  120  A    between atoms: _303  and  _306
REMARK  121  A    between atoms: _306  and  _307
REMARK  122  A    between atoms: _309  and  _311
REMARK  123  A    between atoms: _311  and  _312
REMARK  124  A    between atoms: _311  and  _314
REMARK  125  A    between atoms: _314  and  _315
REMARK  126  A    between atoms: _318  and  _320
REMARK  127  A    between atoms: _320  and  _321
REMARK  128  A    between atoms: _320  and  _323
REMARK  129  A    between atoms: _323  and  _324
REMARK  130  A    between atoms: _327  and  _329
REMARK  131  A    between atoms: _329  and  _330
REMARK  132  A    between atoms: _329  and  _332
REMARK  133  A    between atoms: _332  and  _333
REMARK  134  A    between atoms: _336  and  _338
REMARK  135  A    between atoms: _338  and  _339
REMARK  136  A    between atoms: _338  and  _341
REMARK  137  A    between atoms: _341  and  _342
REMARK  138  A    between atoms: _347  and  _349
REMARK  139  A    between atoms: _349  and  _350
REMARK  140  A    between atoms: _349  and  _352
REMARK  141  A    between atoms: _352  and  _353
REMARK  142  A    between atoms: _353  and  _354
REMARK  143  A    between atoms: _356  and  _358
REMARK  144  A    between atoms: _358  and  _359
REMARK  145  A    between atoms: _358  and  _361
REMARK  146  A    between atoms: _363  and  _365
REMARK  147  A    between atoms: _365  and  _366
REMARK  148  A    between atoms: _365  and  _368
REMARK  149  A    between atoms: _368  and  _369
REMARK  150  A    between atoms: _372  and  _374
REMARK  151  A    between atoms: _374  and  _375
REMARK  152  A    between atoms: _374  and  _377
REMARK  153  A    between atoms: _377  and  _378
REMARK  154  A    between atoms: _378  and  _379
REMARK  155  A    between atoms: _382  and  _384
REMARK  156  A    between atoms: _384  and  _385
REMARK  157  A    between atoms: _384  and  _387
REMARK  158  A    between atoms: _387  and  _388
REMARK  159  A    between atoms: _393  and  _395
REMARK  160  A    between atoms: _395  and  _396
REMARK  161  A    between atoms: _395  and  _398
REMARK  162  A    between atoms: _400  and  _402
REMARK  163  A    between atoms: _402  and  _403
REMARK  164  A    between atoms: _402  and  _405
REMARK  165  A    between atoms: _405  and  _406
REMARK  166  A    between atoms: _411  and  _413
REMARK  167  A    between atoms: _413  and  _414
REMARK  168  A    between atoms: _413  and  _416
REMARK  169  A    between atoms: _416  and  _417
REMARK  170  A    between atoms: _420  and  _422
REMARK  171  A    between atoms: _422  and  _423
REMARK  172  A    between atoms: _422  and  _425
REMARK  173  A    between atoms: _425  and  _426
REMARK  174  A    between atoms: _428  and  _430
REMARK  175  A    between atoms: _430  and  _431
REMARK  176  A    between atoms: _430  and  _433
REMARK  177  A    between atoms: _433  and  _434
REMARK  178  A    between atoms: _437  and  _439
REMARK  179  A    between atoms: _439  and  _440
REMARK  180  A    between atoms: _439  and  _442
REMARK  181  A    between atoms: _445  and  _447
REMARK  182  A    between atoms: _447  and  _448
REMARK  183  A    between atoms: _447  and  _450
REMARK  184  A    between atoms: _450  and  _451
REMARK  185  A    between atoms: _451  and  _452
REMARK  186  A    between atoms: _452  and  _453
REMARK  187  A    between atoms: _462  and  _464
REMARK  188  A    between atoms: _464  and  _465
REMARK  189  A    between atoms: _464  and  _467
REMARK  190  A    between atoms: _467  and  _468
REMARK  191  A    between atoms: _474  and  _476
REMARK  192  A    between atoms: _476  and  _477
REMARK  193  A    between atoms: _476  and  _479
REMARK  194  A    between atoms: _479  and  _480
REMARK                            x       y       z     vdW  Elec       q    Type
REMARK                         _______ _______ _______ _____ _____    ______ ____
ROOT
ATOM      1  O   HOH     1      48.584   3.421 100.414  0.00  0.00    +0.000 OA
ENDROOT
TORSDOF 0
REMARK  Name = ../refined-set-2016/2p4s/2p4s_pocket.pdb
REMARK  194 active torsions:
REMARK  status: ('A' for Active; 'I' for Inactive)
REMARK    1  A    between atoms: _1  and  _3
REMARK    2  A    between atoms: _3  and  _4
REMARK    3  A    between atoms: _6  and  _8
REMARK    4  A    between atoms: _8  and  _9
REMARK    5  A    between atoms: _8  and  _11
REMARK    6  A    between atoms: _11  and  _12
REMARK    7  A    between atoms: _14  and  _16
REMARK    8  A    between atoms: _16  and  _17
REMARK    9  A    between atoms: _19  and  _21
REMARK   10  A    between atoms: _21  and  _22
REMARK   11  A    between atoms: _21  and  _24
REMARK   12  A    between atoms: _27  and  _29
REMARK   13  A    between atoms: _29  and  _30
REMARK   14  A    between atoms: _33  and  _35
REMARK   15  A    between atoms: _35  and  _36
REMARK   16  A    between atoms: _35  and  _38
REMARK   17  A    between atoms: _38  and  _39
REMARK   18  A    between atoms: _44  and  _46
REMARK   19  A    between atoms: _46  and  _47
REMARK   20  A    between atoms: _46  and  _49
REMARK   21  A    between atoms: _49  and  _50
REMARK   22  A    between atoms: _50  and  _51
REMARK   23  A    between atoms: _51  and  _52
REMARK   24  A    between atoms: _61  and  _63
REMARK   25  A    between atoms: _63  and  _64
REMARK   26  A    between atoms: _63  and  _66
REMARK   27  A    between atoms: _66  and  _67
REMARK   28  A    between atoms: _73  and  _75
REMARK   29  A    between atoms: _75  and  _76
REMARK   30  A    between atoms: _75  and  _78
REMARK   31  A    between atoms: _78  and  _79
REMARK   32  A    between atoms: _84  and  _86
REMARK   33  A    between atoms: _86  and  _87
REMARK   34  A    between atoms: _86  and  _89
REMARK   35  A    between atoms: _89  and  _90
REMARK   36  A    between atoms: _95  and  _97
REMARK   37  A    between atoms: _97  and  _98
REMARK   38  A    between atoms: _97  and  _100
REMARK   39  A    between atoms: _100  and  _101
REMARK   40  A    between atoms: _106  and  _107
REMARK   41  A    between atoms: _109  and  _111
REMARK   42  A    between atoms: _111  and  _112
REMARK   43  A    between atoms: _111  and  _114
REMARK   44  A    between atoms: _114  and  _115
REMARK   45  A    between atoms: _115  and  _116
REMARK   46  A    between atoms: _119  and  _121
REMARK   47  A    between atoms: _121  and  _122
REMARK   48  A    between atoms: _121  and  _124
REMARK   49  A    between atoms: _124  and  _125
REMARK   50  A    between atoms: _130  and  _132
REMARK   51  A    between atoms: _132  and  _133
REMARK   52  A    between atoms: _136  and  _138
REMARK   53  A    between atoms: _138  and  _139
REMARK   54  A    between atoms: _142  and  _144
REMARK   55  A    between atoms: _144  and  _145
REMARK   56  A    between atoms: _147  and  _149
REMARK   57  A    between atoms: _149  and  _150
REMARK   58  A    between atoms: _152  and  _154
REMARK   59  A    between atoms: _154  and  _155
REMARK   60  A    between atoms: _158  and  _160
REMARK   61  A    between atoms: _160  and  _161
REMARK   62  A    between atoms: _160  and  _163
REMARK   63  A    between atoms: _163  and  _164
REMARK   64  A    between atoms: _169  and  _170
REMARK   65  A    between atoms: _172  and  _174
REMARK   66  A    between atoms: _174  and  _175
REMARK   67  A    between atoms: _174  and  _177
REMARK   68  A    between atoms: _177  and  _178
REMARK   69  A    between atoms: _181  and  _183
REMARK   70  A    between atoms: _183  and  _184
REMARK   71  A    between atoms: _183  and  _186
REMARK   72  A    between atoms: _188  and  _190
REMARK   73  A    between atoms: _190  and  _191
REMARK   74  A    between atoms: _190  and  _193
REMARK   75  A    between atoms: _193  and  _194
REMARK   76  A    between atoms: _197  and  _199
REMARK   77  A    between atoms: _199  and  _200
REMARK   78  A    between atoms: _202  and  _204
REMARK   79  A    between atoms: _204  and  _205
REMARK   80  A    between atoms: _208  and  _209
REMARK   81  A    between atoms: _214  and  _216
REMARK   82  A    between atoms: _216  and  _217
REMARK   83  A    between atoms: _216  and  _219
REMARK   84  A    between atoms: _219  and  _220
REMARK   85  A    between atoms: _225  and  _227
REMARK   86  A    between atoms: _227  and  _228
REMARK   87  A    between atoms: _227  and  _230
REMARK   88  A    between atoms: _230  and  _231
REMARK   89  A    between atoms: _237  and  _239
REMARK   90  A    between atoms: _239  and  _240
REMARK   91  A    between atoms: _239  and  _242
REMARK   92  A    between atoms: _242  and  _243
REMARK   93  A    between atoms: _243  and  _244
REMARK   94  A    between atoms: _247  and  _249
REMARK   95  A    between atoms: _249  and  _250
REMARK   96  A    between atoms: _249  and  _252
REMARK   97  A    between atoms: _255  and  _257
REMARK   98  A    between atoms: _257  and  _258
REMARK   99  A    between atoms: _261  and  _263
REMARK  100  A    between atoms: _263  and  _264
REMARK  101  A    between atoms: _263  and  _266
REMARK  102  A    between atoms: _266  and  _267
REMARK  103  A    between atoms: _270  and  _272
REMARK  104  A    between atoms: _272  and  _273
REMARK  105  A    between atoms: _275  and  _277
REMARK  106  A    between atoms: _277  and  _278
REMARK  107  A    between atoms: _277  and  _280
REMARK  108  A    between atoms: _280  and  _281
REMARK  109  A    between atoms: _281  and  _282
REMARK  110  A    between atoms: _284  and  _286
REMARK  111  A    between atoms: _286  and  _287
REMARK  112  A    between atoms: _286  and  _289
REMARK  113  A    between atoms: _289  and  _290
REMARK  114  A    between atoms: _292  and  _294
REMARK  115  A    between atoms: _294  and  _295
REMARK  116  A    between atoms: _294  and  _297
REMARK  117  A    between atoms: _297  and  _298
REMARK  118  A    between atoms: _301  and  _303
REMARK  119  A    between atoms: _303  and  _304
REMARK  120  A    between atoms: _303  and  _306
REMARK  121  A    between atoms: _306  and  _307
REMARK  122  A    between atoms: _309  and  _311
REMARK  123  A    between atoms: _311  and  _312
REMARK  124  A    between atoms: _311  and  _314
REMARK  125  A    between atoms: _314  and  _315
REMARK  126  A    between atoms: _318  and  _320
REMARK  127  A    between atoms: _320  and  _321
REMARK  128  A    between atoms: _320  and  _323
REMARK  129  A    between atoms: _323  and  _324
REMARK  130  A    between atoms: _327  and  _329
REMARK  131  A    between atoms: _329  and  _330
REMARK  132  A    between atoms: _329  and  _332
REMARK  133  A    between atoms: _332  and  _333
REMARK  134  A    between atoms: _336  and  _338
REMARK  135  A    between atoms: _338  and  _339
REMARK  136  A    between atoms: _338  and  _341
REMARK  137  A    between atoms: _341  and  _342
REMARK  138  A    between atoms: _347  and  _349
REMARK  139  A    between atoms: _349  and  _350
REMARK  140  A    between atoms: _349  and  _352
REMARK  141  A    between atoms: _352  and  _353
REMARK  142  A    between atoms: _353  and  _354
REMARK  143  A    between atoms: _356  and  _358
REMARK  144  A    between atoms: _358  and  _359
REMARK  145  A    between atoms: _358  and  _361
REMARK  146  A    between atoms: _363  and  _365
REMARK  147  A    between atoms: _365  and  _366
REMARK  148  A    between atoms: _365  and  _368
REMARK  149  A    between atoms: _368  and  _369
REMARK  150  A    between atoms: _372  and  _374
REMARK  151  A    between atoms: _374  and  _375
REMARK  152  A    between atoms: _374  and  _377
REMARK  153  A    between atoms: _377  and  _378
REMARK  154  A    between atoms: _378  and  _379
REMARK  155  A    between atoms: _382  and  _384
REMARK  156  A    between atoms: _384  and  _385
REMARK  157  A    between atoms: _384  and  _387
REMARK  158  A    between atoms: _387  and  _388
REMARK  159  A    between atoms: _393  and  _395
REMARK  160  A    between atoms: _395  and  _396
REMARK  161  A    between atoms: _395  and  _398
REMARK  162  A    between atoms: _400  and  _402
REMARK  163  A    between atoms: _402  and  _403
REMARK  164  A    between atoms: _402  and  _405
REMARK  165  A    between atoms: _405  and  _406
REMARK  166  A    between atoms: _411  and  _413
REMARK  167  A    between atoms: _413  and  _414
REMARK  168  A    between atoms: _413  and  _416
REMARK  169  A    between atoms: _416  and  _417
REMARK  170  A    between atoms: _420  and  _422
REMARK  171  A    between atoms: _422  and  _423
REMARK  172  A    between atoms: _422  and  _425
REMARK  173  A    between atoms: _425  and  _426
REMARK  174  A    between atoms: _428  and  _430
REMARK  175  A    between atoms: _430  and  _431
REMARK  176  A    between atoms: _430  and  _433
REMARK  177  A    between atoms: _433  and  _434
REMARK  178  A    between atoms: _437  and  _439
REMARK  179  A    between atoms: _439  and  _440
REMARK  180  A    between atoms: _439  and  _442
REMARK  181  A    between atoms: _445  and  _447
REMARK  182  A    between atoms: _447  and  _448
REMARK  183  A    between atoms: _447  and  _450
REMARK  184  A    between atoms: _450  and  _451
REMARK  185  A    between atoms: _451  and  _452
REMARK  186  A    between atoms: _452  and  _453
REMARK  187  A    between atoms: _462  and  _464
REMARK  188  A    between atoms: _464  and  _465
REMARK  189  A    between atoms: _464  and  _467
REMARK  190  A    between atoms: _467  and  _468
REMARK  191  A    between atoms: _474  and  _476
REMARK  192  A    between atoms: _476  and  _477
REMARK  193  A    between atoms: _476  and  _479
REMARK  194  A    between atoms: _479  and  _480
REMARK                            x       y       z     vdW  Elec       q    Type
REMARK                         _______ _______ _______ _____ _____    ______ ____
ROOT
ATOM      1  O   HOH     1      46.208   8.289 109.934  0.00  0.00    +0.000 OA
ENDROOT
TORSDOF 0
REMARK  Name = ../refined-set-2016/2p4s/2p4s_pocket.pdb
REMARK  194 active torsions:
REMARK  status: ('A' for Active; 'I' for Inactive)
REMARK    1  A    between atoms: _1  and  _3
REMARK    2  A    between atoms: _3  and  _4
REMARK    3  A    between atoms: _6  and  _8
REMARK    4  A    between atoms: _8  and  _9
REMARK    5  A    between atoms: _8  and  _11
REMARK    6  A    between atoms: _11  and  _12
REMARK    7  A    between atoms: _14  and  _16
REMARK    8  A    between atoms: _16  and  _17
REMARK    9  A    between atoms: _19  and  _21
REMARK   10  A    between atoms: _21  and  _22
REMARK   11  A    between atoms: _21  and  _24
REMARK   12  A    between atoms: _27  and  _29
REMARK   13  A    between atoms: _29  and  _30
REMARK   14  A    between atoms: _33  and  _35
REMARK   15  A    between atoms: _35  and  _36
REMARK   16  A    between atoms: _35  and  _38
REMARK   17  A    between atoms: _38  and  _39
REMARK   18  A    between atoms: _44  and  _46
REMARK   19  A    between atoms: _46  and  _47
REMARK   20  A    between atoms: _46  and  _49
REMARK   21  A    between atoms: _49  and  _50
REMARK   22  A    between atoms: _50  and  _51
REMARK   23  A    between atoms: _51  and  _52
REMARK   24  A    between atoms: _61  and  _63
REMARK   25  A    between atoms: _63  and  _64
REMARK   26  A    between atoms: _63  and  _66
REMARK   27  A    between atoms: _66  and  _67
REMARK   28  A    between atoms: _73  and  _75
REMARK   29  A    between atoms: _75  and  _76
REMARK   30  A    between atoms: _75  and  _78
REMARK   31  A    between atoms: _78  and  _79
REMARK   32  A    between atoms: _84  and  _86
REMARK   33  A    between atoms: _86  and  _87
REMARK   34  A    between atoms: _86  and  _89
REMARK   35  A    between atoms: _89  and  _90
REMARK   36  A    between atoms: _95  and  _97
REMARK   37  A    between atoms: _97  and  _98
REMARK   38  A    between atoms: _97  and  _100
REMARK   39  A    between atoms: _100  and  _101
REMARK   40  A    between atoms: _106  and  _107
REMARK   41  A    between atoms: _109  and  _111
REMARK   42  A    between atoms: _111  and  _112
REMARK   43  A    between atoms: _111  and  _114
REMARK   44  A    between atoms: _114  and  _115
REMARK   45  A    between atoms: _115  and  _116
REMARK   46  A    between atoms: _119  and  _121
REMARK   47  A    between atoms: _121  and  _122
REMARK   48  A    between atoms: _121  and  _124
REMARK   49  A    between atoms: _124  and  _125
REMARK   50  A    between atoms: _130  and  _132
REMARK   51  A    between atoms: _132  and  _133
REMARK   52  A    between atoms: _136  and  _138
REMARK   53  A    between atoms: _138  and  _139
REMARK   54  A    between atoms: _142  and  _144
REMARK   55  A    between atoms: _144  and  _145
REMARK   56  A    between atoms: _147  and  _149
REMARK   57  A    between atoms: _149  and  _150
REMARK   58  A    between atoms: _152  and  _154
REMARK   59  A    between atoms: _154  and  _155
REMARK   60  A    between atoms: _158  and  _160
REMARK   61  A    between atoms: _160  and  _161
REMARK   62  A    between atoms: _160  and  _163
REMARK   63  A    between atoms: _163  and  _164
REMARK   64  A    between atoms: _169  and  _170
REMARK   65  A    between atoms: _172  and  _174
REMARK   66  A    between atoms: _174  and  _175
REMARK   67  A    between atoms: _174  and  _177
REMARK   68  A    between atoms: _177  and  _178
REMARK   69  A    between atoms: _181  and  _183
REMARK   70  A    between atoms: _183  and  _184
REMARK   71  A    between atoms: _183  and  _186
REMARK   72  A    between atoms: _188  and  _190
REMARK   73  A    between atoms: _190  and  _191
REMARK   74  A    between atoms: _190  and  _193
REMARK   75  A    between atoms: _193  and  _194
REMARK   76  A    between atoms: _197  and  _199
REMARK   77  A    between atoms: _199  and  _200
REMARK   78  A    between atoms: _202  and  _204
REMARK   79  A    between atoms: _204  and  _205
REMARK   80  A    between atoms: _208  and  _209
REMARK   81  A    between atoms: _214  and  _216
REMARK   82  A    between atoms: _216  and  _217
REMARK   83  A    between atoms: _216  and  _219
REMARK   84  A    between atoms: _219  and  _220
REMARK   85  A    between atoms: _225  and  _227
REMARK   86  A    between atoms: _227  and  _228
REMARK   87  A    between atoms: _227  and  _230
REMARK   88  A    between atoms: _230  and  _231
REMARK   89  A    between atoms: _237  and  _239
REMARK   90  A    between atoms: _239  and  _240
REMARK   91  A    between atoms: _239  and  _242
REMARK   92  A    between atoms: _242  and  _243
REMARK   93  A    between atoms: _243  and  _244
REMARK   94  A    between atoms: _247  and  _249
REMARK   95  A    between atoms: _249  and  _250
REMARK   96  A    between atoms: _249  and  _252
REMARK   97  A    between atoms: _255  and  _257
REMARK   98  A    between atoms: _257  and  _258
REMARK   99  A    between atoms: _261  and  _263
REMARK  100  A    between atoms: _263  and  _264
REMARK  101  A    between atoms: _263  and  _266
REMARK  102  A    between atoms: _266  and  _267
REMARK  103  A    between atoms: _270  and  _272
REMARK  104  A    between atoms: _272  and  _273
REMARK  105  A    between atoms: _275  and  _277
REMARK  106  A    between atoms: _277  and  _278
REMARK  107  A    between atoms: _277  and  _280
REMARK  108  A    between atoms: _280  and  _281
REMARK  109  A    between atoms: _281  and  _282
REMARK  110  A    between atoms: _284  and  _286
REMARK  111  A    between atoms: _286  and  _287
REMARK  112  A    between atoms: _286  and  _289
REMARK  113  A    between atoms: _289  and  _290
REMARK  114  A    between atoms: _292  and  _294
REMARK  115  A    between atoms: _294  and  _295
REMARK  116  A    between atoms: _294  and  _297
REMARK  117  A    between atoms: _297  and  _298
REMARK  118  A    between atoms: _301  and  _303
REMARK  119  A    between atoms: _303  and  _304
REMARK  120  A    between atoms: _303  and  _306
REMARK  121  A    between atoms: _306  and  _307
REMARK  122  A    between atoms: _309  and  _311
REMARK  123  A    between atoms: _311  and  _312
REMARK  124  A    between atoms: _311  and  _314
REMARK  125  A    between atoms: _314  and  _315
REMARK  126  A    between atoms: _318  and  _320
REMARK  127  A    between atoms: _320  and  _321
REMARK  128  A    between atoms: _320  and  _323
REMARK  129  A    between atoms: _323  and  _324
REMARK  130  A    between atoms: _327  and  _329
REMARK  131  A    between atoms: _329  and  _330
REMARK  132  A    between atoms: _329  and  _332
REMARK  133  A    between atoms: _332  and  _333
REMARK  134  A    between atoms: _336  and  _338
REMARK  135  A    between atoms: _338  and  _339
REMARK  136  A    between atoms: _338  and  _341
REMARK  137  A    between atoms: _341  and  _342
REMARK  138  A    between atoms: _347  and  _349
REMARK  139  A    between atoms: _349  and  _350
REMARK  140  A    between atoms: _349  and  _352
REMARK  141  A    between atoms: _352  and  _353
REMARK  142  A    between atoms: _353  and  _354
REMARK  143  A    between atoms: _356  and  _358
REMARK  144  A    between atoms: _358  and  _359
REMARK  145  A    between atoms: _358  and  _361
REMARK  146  A    between atoms: _363  and  _365
REMARK  147  A    between atoms: _365  and  _366
REMARK  148  A    between atoms: _365  and  _368
REMARK  149  A    between atoms: _368  and  _369
REMARK  150  A    between atoms: _372  and  _374
REMARK  151  A    between atoms: _374  and  _375
REMARK  152  A    between atoms: _374  and  _377
REMARK  153  A    between atoms: _377  and  _378
REMARK  154  A    between atoms: _378  and  _379
REMARK  155  A    between atoms: _382  and  _384
REMARK  156  A    between atoms: _384  and  _385
REMARK  157  A    between atoms: _384  and  _387
REMARK  158  A    between atoms: _387  and  _388
REMARK  159  A    between atoms: _393  and  _395
REMARK  160  A    between atoms: _395  and  _396
REMARK  161  A    between atoms: _395  and  _398
REMARK  162  A    between atoms: _400  and  _402
REMARK  163  A    between atoms: _402  and  _403
REMARK  164  A    between atoms: _402  and  _405
REMARK  165  A    between atoms: _405  and  _406
REMARK  166  A    between atoms: _411  and  _413
REMARK  167  A    between atoms: _413  and  _414
REMARK  168  A    between atoms: _413  and  _416
REMARK  169  A    between atoms: _416  and  _417
REMARK  170  A    between atoms: _420  and  _422
REMARK  171  A    between atoms: _422  and  _423
REMARK  172  A    between atoms: _422  and  _425
REMARK  173  A    between atoms: _425  and  _426
REMARK  174  A    between atoms: _428  and  _430
REMARK  175  A    between atoms: _430  and  _431
REMARK  176  A    between atoms: _430  and  _433
REMARK  177  A    between atoms: _433  and  _434
REMARK  178  A    between atoms: _437  and  _439
REMARK  179  A    between atoms: _439  and  _440
REMARK  180  A    between atoms: _439  and  _442
REMARK  181  A    between atoms: _445  and  _447
REMARK  182  A    between atoms: _447  and  _448
REMARK  183  A    between atoms: _447  and  _450
REMARK  184  A    between atoms: _450  and  _451
REMARK  185  A    between atoms: _451  and  _452
REMARK  186  A    between atoms: _452  and  _453
REMARK  187  A    between atoms: _462  and  _464
REMARK  188  A    between atoms: _464  and  _465
REMARK  189  A    between atoms: _464  and  _467
REMARK  190  A    between atoms: _467  and  _468
REMARK  191  A    between atoms: _474  and  _476
REMARK  192  A    between atoms: _476  and  _477
REMARK  193  A    between atoms: _476  and  _479
REMARK  194  A    between atoms: _479  and  _480
REMARK                            x       y       z     vdW  Elec       q    Type
REMARK                         _______ _______ _______ _____ _____    ______ ____
ROOT
ATOM      1  O   HOH     1      46.729  -3.679 104.185  0.00  0.00    +0.000 OA
ENDROOT
TORSDOF 0
REMARK  Name = ../refined-set-2016/2p4s/2p4s_pocket.pdb
REMARK  194 active torsions:
REMARK  status: ('A' for Active; 'I' for Inactive)
REMARK    1  A    between atoms: _1  and  _3
REMARK    2  A    between atoms: _3  and  _4
REMARK    3  A    between atoms: _6  and  _8
REMARK    4  A    between atoms: _8  and  _9
REMARK    5  A    between atoms: _8  and  _11
REMARK    6  A    between atoms: _11  and  _12
REMARK    7  A    between atoms: _14  and  _16
REMARK    8  A    between atoms: _16  and  _17
REMARK    9  A    between atoms: _19  and  _21
REMARK   10  A    between atoms: _21  and  _22
REMARK   11  A    between atoms: _21  and  _24
REMARK   12  A    between atoms: _27  and  _29
REMARK   13  A    between atoms: _29  and  _30
REMARK   14  A    between atoms: _33  and  _35
REMARK   15  A    between atoms: _35  and  _36
REMARK   16  A    between atoms: _35  and  _38
REMARK   17  A    between atoms: _38  and  _39
REMARK   18  A    between atoms: _44  and  _46
REMARK   19  A    between atoms: _46  and  _47
REMARK   20  A    between atoms: _46  and  _49
REMARK   21  A    between atoms: _49  and  _50
REMARK   22  A    between atoms: _50  and  _51
REMARK   23  A    between atoms: _51  and  _52
REMARK   24  A    between atoms: _61  and  _63
REMARK   25  A    between atoms: _63  and  _64
REMARK   26  A    between atoms: _63  and  _66
REMARK   27  A    between atoms: _66  and  _67
REMARK   28  A    between atoms: _73  and  _75
REMARK   29  A    between atoms: _75  and  _76
REMARK   30  A    between atoms: _75  and  _78
REMARK   31  A    between atoms: _78  and  _79
REMARK   32  A    between atoms: _84  and  _86
REMARK   33  A    between atoms: _86  and  _87
REMARK   34  A    between atoms: _86  and  _89
REMARK   35  A    between atoms: _89  and  _90
REMARK   36  A    between atoms: _95  and  _97
REMARK   37  A    between atoms: _97  and  _98
REMARK   38  A    between atoms: _97  and  _100
REMARK   39  A    between atoms: _100  and  _101
REMARK   40  A    between atoms: _106  and  _107
REMARK   41  A    between atoms: _109  and  _111
REMARK   42  A    between atoms: _111  and  _112
REMARK   43  A    between atoms: _111  and  _114
REMARK   44  A    between atoms: _114  and  _115
REMARK   45  A    between atoms: _115  and  _116
REMARK   46  A    between atoms: _119  and  _121
REMARK   47  A    between atoms: _121  and  _122
REMARK   48  A    between atoms: _121  and  _124
REMARK   49  A    between atoms: _124  and  _125
REMARK   50  A    between atoms: _130  and  _132
REMARK   51  A    between atoms: _132  and  _133
REMARK   52  A    between atoms: _136  and  _138
REMARK   53  A    between atoms: _138  and  _139
REMARK   54  A    between atoms: _142  and  _144
REMARK   55  A    between atoms: _144  and  _145
REMARK   56  A    between atoms: _147  and  _149
REMARK   57  A    between atoms: _149  and  _150
REMARK   58  A    between atoms: _152  and  _154
REMARK   59  A    between atoms: _154  and  _155
REMARK   60  A    between atoms: _158  and  _160
REMARK   61  A    between atoms: _160  and  _161
REMARK   62  A    between atoms: _160  and  _163
REMARK   63  A    between atoms: _163  and  _164
REMARK   64  A    between atoms: _169  and  _170
REMARK   65  A    between atoms: _172  and  _174
REMARK   66  A    between atoms: _174  and  _175
REMARK   67  A    between atoms: _174  and  _177
REMARK   68  A    between atoms: _177  and  _178
REMARK   69  A    between atoms: _181  and  _183
REMARK   70  A    between atoms: _183  and  _184
REMARK   71  A    between atoms: _183  and  _186
REMARK   72  A    between atoms: _188  and  _190
REMARK   73  A    between atoms: _190  and  _191
REMARK   74  A    between atoms: _190  and  _193
REMARK   75  A    between atoms: _193  and  _194
REMARK   76  A    between atoms: _197  and  _199
REMARK   77  A    between atoms: _199  and  _200
REMARK   78  A    between atoms: _202  and  _204
REMARK   79  A    between atoms: _204  and  _205
REMARK   80  A    between atoms: _208  and  _209
REMARK   81  A    between atoms: _214  and  _216
REMARK   82  A    between atoms: _216  and  _217
REMARK   83  A    between atoms: _216  and  _219
REMARK   84  A    between atoms: _219  and  _220
REMARK   85  A    between atoms: _225  and  _227
REMARK   86  A    between atoms: _227  and  _228
REMARK   87  A    between atoms: _227  and  _230
REMARK   88  A    between atoms: _230  and  _231
REMARK   89  A    between atoms: _237  and  _239
REMARK   90  A    between atoms: _239  and  _240
REMARK   91  A    between atoms: _239  and  _242
REMARK   92  A    between atoms: _242  and  _243
REMARK   93  A    between atoms: _243  and  _244
REMARK   94  A    between atoms: _247  and  _249
REMARK   95  A    between atoms: _249  and  _250
REMARK   96  A    between atoms: _249  and  _252
REMARK   97  A    between atoms: _255  and  _257
REMARK   98  A    between atoms: _257  and  _258
REMARK   99  A    between atoms: _261  and  _263
REMARK  100  A    between atoms: _263  and  _264
REMARK  101  A    between atoms: _263  and  _266
REMARK  102  A    between atoms: _266  and  _267
REMARK  103  A    between atoms: _270  and  _272
REMARK  104  A    between atoms: _272  and  _273
REMARK  105  A    between atoms: _275  and  _277
REMARK  106  A    between atoms: _277  and  _278
REMARK  107  A    between atoms: _277  and  _280
REMARK  108  A    between atoms: _280  and  _281
REMARK  109  A    between atoms: _281  and  _282
REMARK  110  A    between atoms: _284  and  _286
REMARK  111  A    between atoms: _286  and  _287
REMARK  112  A    between atoms: _286  and  _289
REMARK  113  A    between atoms: _289  and  _290
REMARK  114  A    between atoms: _292  and  _294
REMARK  115  A    between atoms: _294  and  _295
REMARK  116  A    between atoms: _294  and  _297
REMARK  117  A    between atoms: _297  and  _298
REMARK  118  A    between atoms: _301  and  _303
REMARK  119  A    between atoms: _303  and  _304
REMARK  120  A    between atoms: _303  and  _306
REMARK  121  A    between atoms: _306  and  _307
REMARK  122  A    between atoms: _309  and  _311
REMARK  123  A    between atoms: _311  and  _312
REMARK  124  A    between atoms: _311  and  _314
REMARK  125  A    between atoms: _314  and  _315
REMARK  126  A    between atoms: _318  and  _320
REMARK  127  A    between atoms: _320  and  _321
REMARK  128  A    between atoms: _320  and  _323
REMARK  129  A    between atoms: _323  and  _324
REMARK  130  A    between atoms: _327  and  _329
REMARK  131  A    between atoms: _329  and  _330
REMARK  132  A    between atoms: _329  and  _332
REMARK  133  A    between atoms: _332  and  _333
REMARK  134  A    between atoms: _336  and  _338
REMARK  135  A    between atoms: _338  and  _339
REMARK  136  A    between atoms: _338  and  _341
REMARK  137  A    between atoms: _341  and  _342
REMARK  138  A    between atoms: _347  and  _349
REMARK  139  A    between atoms: _349  and  _350
REMARK  140  A    between atoms: _349  and  _352
REMARK  141  A    between atoms: _352  and  _353
REMARK  142  A    between atoms: _353  and  _354
REMARK  143  A    between atoms: _356  and  _358
REMARK  144  A    between atoms: _358  and  _359
REMARK  145  A    between atoms: _358  and  _361
REMARK  146  A    between atoms: _363  and  _365
REMARK  147  A    between atoms: _365  and  _366
REMARK  148  A    between atoms: _365  and  _368
REMARK  149  A    between atoms: _368  and  _369
REMARK  150  A    between atoms: _372  and  _374
REMARK  151  A    between atoms: _374  and  _375
REMARK  152  A    between atoms: _374  and  _377
REMARK  153  A    between atoms: _377  and  _378
REMARK  154  A    between atoms: _378  and  _379
REMARK  155  A    between atoms: _382  and  _384
REMARK  156  A    between atoms: _384  and  _385
REMARK  157  A    between atoms: _384  and  _387
REMARK  158  A    between atoms: _387  and  _388
REMARK  159  A    between atoms: _393  and  _395
REMARK  160  A    between atoms: _395  and  _396
REMARK  161  A    between atoms: _395  and  _398
REMARK  162  A    between atoms: _400  and  _402
REMARK  163  A    between atoms: _402  and  _403
REMARK  164  A    between atoms: _402  and  _405
REMARK  165  A    between atoms: _405  and  _406
REMARK  166  A    between atoms: _411  and  _413
REMARK  167  A    between atoms: _413  and  _414
REMARK  168  A    between atoms: _413  and  _416
REMARK  169  A    between atoms: _416  and  _417
REMARK  170  A    between atoms: _420  and  _422
REMARK  171  A    between atoms: _422  and  _423
REMARK  172  A    between atoms: _422  and  _425
REMARK  173  A    between atoms: _425  and  _426
REMARK  174  A    between atoms: _428  and  _430
REMARK  175  A    between atoms: _430  and  _431
REMARK  176  A    between atoms: _430  and  _433
REMARK  177  A    between atoms: _433  and  _434
REMARK  178  A    between atoms: _437  and  _439
REMARK  179  A    between atoms: _439  and  _440
REMARK  180  A    between atoms: _439  and  _442
REMARK  181  A    between atoms: _445  and  _447
REMARK  182  A    between atoms: _447  and  _448
REMARK  183  A    between atoms: _447  and  _450
REMARK  184  A    between atoms: _450  and  _451
REMARK  185  A    between atoms: _451  and  _452
REMARK  186  A    between atoms: _452  and  _453
REMARK  187  A    between atoms: _462  and  _464
REMARK  188  A    between atoms: _464  and  _465
REMARK  189  A    between atoms: _464  and  _467
REMARK  190  A    between atoms: _467  and  _468
REMARK  191  A    between atoms: _474  and  _476
REMARK  192  A    between atoms: _476  and  _477
REMARK  193  A    between atoms: _476  and  _479
REMARK  194  A    between atoms: _479  and  _480
REMARK                            x       y       z     vdW  Elec       q    Type
REMARK                         _______ _______ _______ _____ _____    ______ ____
ROOT
ATOM      1  O   HOH     1      44.124   5.066 112.480  0.00  0.00    +0.000 OA
ENDROOT
TORSDOF 0
