REMARK  Name = ../refined-set-2016/2afx/2afx_pocket.pdb
REMARK  128 active torsions:
REMARK  status: ('A' for Active; 'I' for Inactive)
REMARK    1  A    between atoms: _1  and  _3
REMARK    2  A    between atoms: _3  and  _4
REMARK    3  A    between atoms: _3  and  _6
REMARK    4  A    between atoms: _6  and  _7
REMARK    5  A    between atoms: _12  and  _14
REMARK    6  A    between atoms: _14  and  _15
REMARK    7  A    between atoms: _14  and  _17
REMARK    8  A    between atoms: _17  and  _18
REMARK    9  A    between atoms: _18  and  _19
REMARK   10  A    between atoms: _19  and  _20
REMARK   11  A    between atoms: _20  and  _21
REMARK   12  A    between atoms: _25  and  _27
REMARK   13  A    between atoms: _27  and  _28
REMARK   14  A    between atoms: _27  and  _30
REMARK   15  A    between atoms: _30  and  _31
REMARK   16  A    between atoms: _37  and  _39
REMARK   17  A    between atoms: _39  and  _40
REMARK   18  A    between atoms: _39  and  _42
REMARK   19  A    between atoms: _42  and  _43
REMARK   20  A    between atoms: _46  and  _48
REMARK   21  A    between atoms: _48  and  _49
REMARK   22  A    between atoms: _48  and  _51
REMARK   23  A    between atoms: _51  and  _52
REMARK   24  A    between atoms: _52  and  _54
REMARK   25  A    between atoms: _54  and  ZN_303
REMARK   26  A    between atoms: _55  and  _57
REMARK   27  A    between atoms: _57  and  _58
REMARK   28  A    between atoms: _57  and  _60
REMARK   29  A    between atoms: _60  and  _61
REMARK   30  A    between atoms: _63  and  _65
REMARK   31  A    between atoms: _65  and  _66
REMARK   32  A    between atoms: _65  and  _68
REMARK   33  A    between atoms: _68  and  _69
REMARK   34  A    between atoms: _69  and  _70
REMARK   35  A    between atoms: _73  and  _75
REMARK   36  A    between atoms: _75  and  _76
REMARK   37  A    between atoms: _75  and  _78
REMARK   38  A    between atoms: _78  and  _79
REMARK   39  A    between atoms: _79  and  _80
REMARK   40  A    between atoms: _80  and  _82
REMARK   41  A    between atoms: _82  and  ZN_303
REMARK   42  A    between atoms: _83  and  _85
REMARK   43  A    between atoms: _85  and  _86
REMARK   44  A    between atoms: _89  and  _91
REMARK   45  A    between atoms: _91  and  _92
REMARK   46  A    between atoms: _91  and  _94
REMARK   47  A    between atoms: _94  and  _95
REMARK   48  A    between atoms: _100  and  _102
REMARK   49  A    between atoms: _102  and  _103
REMARK   50  A    between atoms: _102  and  _105
REMARK   51  A    between atoms: _105  and  _106
REMARK   52  A    between atoms: _116  and  _118
REMARK   53  A    between atoms: _118  and  _119
REMARK   54  A    between atoms: _118  and  _121
REMARK   55  A    between atoms: _121  and  _122
REMARK   56  A    between atoms: _124  and  _126
REMARK   57  A    between atoms: _126  and  _127
REMARK   58  A    between atoms: _126  and  _129
REMARK   59  A    between atoms: _129  and  _130
REMARK   60  A    between atoms: _132  and  _134
REMARK   61  A    between atoms: _134  and  _135
REMARK   62  A    between atoms: _134  and  _137
REMARK   63  A    between atoms: _137  and  _138
REMARK   64  A    between atoms: _141  and  _143
REMARK   65  A    between atoms: _143  and  _144
REMARK   66  A    between atoms: _143  and  _146
REMARK   67  A    between atoms: _146  and  _147
REMARK   68  A    between atoms: _150  and  _152
REMARK   69  A    between atoms: _152  and  _153
REMARK   70  A    between atoms: _152  and  _155
REMARK   71  A    between atoms: _155  and  _156
REMARK   72  A    between atoms: _159  and  _161
REMARK   73  A    between atoms: _161  and  _162
REMARK   74  A    between atoms: _161  and  _164
REMARK   75  A    between atoms: _164  and  _165
REMARK   76  A    between atoms: _168  and  _170
REMARK   77  A    between atoms: _170  and  _171
REMARK   78  A    between atoms: _170  and  _173
REMARK   79  A    between atoms: _173  and  _174
REMARK   80  A    between atoms: _177  and  _179
REMARK   81  A    between atoms: _179  and  _180
REMARK   82  A    between atoms: _179  and  _182
REMARK   83  A    between atoms: _185  and  _187
REMARK   84  A    between atoms: _187  and  _188
REMARK   85  A    between atoms: _187  and  _190
REMARK   86  A    between atoms: _190  and  _191
REMARK   87  A    between atoms: _194  and  _196
REMARK   88  A    between atoms: _196  and  _197
REMARK   89  A    between atoms: _196  and  _199
REMARK   90  A    between atoms: _199  and  _200
REMARK   91  A    between atoms: _200  and  _201
REMARK   92  A    between atoms: _206  and  _208
REMARK   93  A    between atoms: _208  and  _209
REMARK   94  A    between atoms: _208  and  _211
REMARK   95  A    between atoms: _211  and  _212
REMARK   96  A    between atoms: _215  and  _217
REMARK   97  A    between atoms: _217  and  _218
REMARK   98  A    between atoms: _217  and  _220
REMARK   99  A    between atoms: _220  and  _221
REMARK  100  A    between atoms: _224  and  _226
REMARK  101  A    between atoms: _226  and  _227
REMARK  102  A    between atoms: _226  and  _229
REMARK  103  A    between atoms: _229  and  _230
REMARK  104  A    between atoms: _235  and  _237
REMARK  105  A    between atoms: _237  and  _238
REMARK  106  A    between atoms: _237  and  _240
REMARK  107  A    between atoms: _240  and  _241
REMARK  108  A    between atoms: _246  and  _248
REMARK  109  A    between atoms: _248  and  _249
REMARK  110  A    between atoms: _248  and  _251
REMARK  111  A    between atoms: _251  and  _252
REMARK  112  A    between atoms: _255  and  _257
REMARK  113  A    between atoms: _257  and  _258
REMARK  114  A    between atoms: _257  and  _260
REMARK  115  A    between atoms: _260  and  _261
REMARK  116  A    between atoms: _267  and  _269
REMARK  117  A    between atoms: _269  and  _270
REMARK  118  A    between atoms: _269  and  _272
REMARK  119  A    between atoms: _272  and  _273
REMARK  120  A    between atoms: _283  and  _285
REMARK  121  A    between atoms: _285  and  _286
REMARK  122  A    between atoms: _285  and  _288
REMARK  123  A    between atoms: _288  and  _289
REMARK  124  A    between atoms: _293  and  ZN_303
REMARK  125  A    between atoms: _294  and  _296
REMARK  126  A    between atoms: _296  and  _297
REMARK  127  A    between atoms: _296  and  _299
REMARK  128  A    between atoms: _299  and  _300
REMARK                            x       y       z     vdW  Elec       q    Type
REMARK                         _______ _______ _______ _____ _____    ______ ____
ROOT
ATOM      1  CB  HIS A   1     -21.494  -1.439  25.783  0.00  0.00    +0.072 C 
ENDROOT
BRANCH   1   2
ATOM      2  CG  HIS A   1     -21.461  -0.298  24.795  0.00  0.00    +0.082 A 
ATOM      3  ND1 HIS A   1     -22.190   0.862  24.971  0.00  0.00    -0.227 NA
ATOM      4  CE1 HIS A   1     -21.889   1.727  24.013  0.00  0.00    +0.199 A 
ATOM      5  NE2 HIS A   1     -20.992   1.167  23.218  0.00  0.00    -0.221 NA
ATOM      6  CD2 HIS A   1     -20.704  -0.100  23.685  0.00  0.00    +0.115 A 
ENDBRANCH   1   2
BRANCH   1   7
ATOM      7  CA  HIS A   1     -22.523  -2.573  25.485  0.00  0.00    +0.139 C 
BRANCH   7   8
ATOM      8  N   HIS A   1     -22.107  -3.391  24.346  0.00  0.00    -0.239 NA
ATOM      9  H   HIS A   1     -21.787  -2.935  23.468  0.00  0.00    +0.142 HD
ENDBRANCH   7   8
BRANCH   7  10
ATOM     10  C   HIS A   1     -23.905  -1.995  25.149  0.00  0.00    +0.224 C 
ATOM     11  O   HIS A   1     -24.167  -1.630  23.999  0.00  0.00    -0.287 OA
ENDBRANCH   7  10
ENDBRANCH   1   7
TORSDOF 4
REMARK  Name = ../refined-set-2016/2afx/2afx_pocket.pdb
REMARK  128 active torsions:
REMARK  status: ('A' for Active; 'I' for Inactive)
REMARK    1  A    between atoms: _1  and  _3
REMARK    2  A    between atoms: _3  and  _4
REMARK    3  A    between atoms: _3  and  _6
REMARK    4  A    between atoms: _6  and  _7
REMARK    5  A    between atoms: _12  and  _14
REMARK    6  A    between atoms: _14  and  _15
REMARK    7  A    between atoms: _14  and  _17
REMARK    8  A    between atoms: _17  and  _18
REMARK    9  A    between atoms: _18  and  _19
REMARK   10  A    between atoms: _19  and  _20
REMARK   11  A    between atoms: _20  and  _21
REMARK   12  A    between atoms: _25  and  _27
REMARK   13  A    between atoms: _27  and  _28
REMARK   14  A    between atoms: _27  and  _30
REMARK   15  A    between atoms: _30  and  _31
REMARK   16  A    between atoms: _37  and  _39
REMARK   17  A    between atoms: _39  and  _40
REMARK   18  A    between atoms: _39  and  _42
REMARK   19  A    between atoms: _42  and  _43
REMARK   20  A    between atoms: _46  and  _48
REMARK   21  A    between atoms: _48  and  _49
REMARK   22  A    between atoms: _48  and  _51
REMARK   23  A    between atoms: _51  and  _52
REMARK   24  A    between atoms: _52  and  _54
REMARK   25  A    between atoms: _54  and  ZN_303
REMARK   26  A    between atoms: _55  and  _57
REMARK   27  A    between atoms: _57  and  _58
REMARK   28  A    between atoms: _57  and  _60
REMARK   29  A    between atoms: _60  and  _61
REMARK   30  A    between atoms: _63  and  _65
REMARK   31  A    between atoms: _65  and  _66
REMARK   32  A    between atoms: _65  and  _68
REMARK   33  A    between atoms: _68  and  _69
REMARK   34  A    between atoms: _69  and  _70
REMARK   35  A    between atoms: _73  and  _75
REMARK   36  A    between atoms: _75  and  _76
REMARK   37  A    between atoms: _75  and  _78
REMARK   38  A    between atoms: _78  and  _79
REMARK   39  A    between atoms: _79  and  _80
REMARK   40  A    between atoms: _80  and  _82
REMARK   41  A    between atoms: _82  and  ZN_303
REMARK   42  A    between atoms: _83  and  _85
REMARK   43  A    between atoms: _85  and  _86
REMARK   44  A    between atoms: _89  and  _91
REMARK   45  A    between atoms: _91  and  _92
REMARK   46  A    between atoms: _91  and  _94
REMARK   47  A    between atoms: _94  and  _95
REMARK   48  A    between atoms: _100  and  _102
REMARK   49  A    between atoms: _102  and  _103
REMARK   50  A    between atoms: _102  and  _105
REMARK   51  A    between atoms: _105  and  _106
REMARK   52  A    between atoms: _116  and  _118
REMARK   53  A    between atoms: _118  and  _119
REMARK   54  A    between atoms: _118  and  _121
REMARK   55  A    between atoms: _121  and  _122
REMARK   56  A    between atoms: _124  and  _126
REMARK   57  A    between atoms: _126  and  _127
REMARK   58  A    between atoms: _126  and  _129
REMARK   59  A    between atoms: _129  and  _130
REMARK   60  A    between atoms: _132  and  _134
REMARK   61  A    between atoms: _134  and  _135
REMARK   62  A    between atoms: _134  and  _137
REMARK   63  A    between atoms: _137  and  _138
REMARK   64  A    between atoms: _141  and  _143
REMARK   65  A    between atoms: _143  and  _144
REMARK   66  A    between atoms: _143  and  _146
REMARK   67  A    between atoms: _146  and  _147
REMARK   68  A    between atoms: _150  and  _152
REMARK   69  A    between atoms: _152  and  _153
REMARK   70  A    between atoms: _152  and  _155
REMARK   71  A    between atoms: _155  and  _156
REMARK   72  A    between atoms: _159  and  _161
REMARK   73  A    between atoms: _161  and  _162
REMARK   74  A    between atoms: _161  and  _164
REMARK   75  A    between atoms: _164  and  _165
REMARK   76  A    between atoms: _168  and  _170
REMARK   77  A    between atoms: _170  and  _171
REMARK   78  A    between atoms: _170  and  _173
REMARK   79  A    between atoms: _173  and  _174
REMARK   80  A    between atoms: _177  and  _179
REMARK   81  A    between atoms: _179  and  _180
REMARK   82  A    between atoms: _179  and  _182
REMARK   83  A    between atoms: _185  and  _187
REMARK   84  A    between atoms: _187  and  _188
REMARK   85  A    between atoms: _187  and  _190
REMARK   86  A    between atoms: _190  and  _191
REMARK   87  A    between atoms: _194  and  _196
REMARK   88  A    between atoms: _196  and  _197
REMARK   89  A    between atoms: _196  and  _199
REMARK   90  A    between atoms: _199  and  _200
REMARK   91  A    between atoms: _200  and  _201
REMARK   92  A    between atoms: _206  and  _208
REMARK   93  A    between atoms: _208  and  _209
REMARK   94  A    between atoms: _208  and  _211
REMARK   95  A    between atoms: _211  and  _212
REMARK   96  A    between atoms: _215  and  _217
REMARK   97  A    between atoms: _217  and  _218
REMARK   98  A    between atoms: _217  and  _220
REMARK   99  A    between atoms: _220  and  _221
REMARK  100  A    between atoms: _224  and  _226
REMARK  101  A    between atoms: _226  and  _227
REMARK  102  A    between atoms: _226  and  _229
REMARK  103  A    between atoms: _229  and  _230
REMARK  104  A    between atoms: _235  and  _237
REMARK  105  A    between atoms: _237  and  _238
REMARK  106  A    between atoms: _237  and  _240
REMARK  107  A    between atoms: _240  and  _241
REMARK  108  A    between atoms: _246  and  _248
REMARK  109  A    between atoms: _248  and  _249
REMARK  110  A    between atoms: _248  and  _251
REMARK  111  A    between atoms: _251  and  _252
REMARK  112  A    between atoms: _255  and  _257
REMARK  113  A    between atoms: _257  and  _258
REMARK  114  A    between atoms: _257  and  _260
REMARK  115  A    between atoms: _260  and  _261
REMARK  116  A    between atoms: _267  and  _269
REMARK  117  A    between atoms: _269  and  _270
REMARK  118  A    between atoms: _269  and  _272
REMARK  119  A    between atoms: _272  and  _273
REMARK  120  A    between atoms: _283  and  _285
REMARK  121  A    between atoms: _285  and  _286
REMARK  122  A    between atoms: _285  and  _288
REMARK  123  A    between atoms: _288  and  _289
REMARK  124  A    between atoms: _293  and  ZN_303
REMARK  125  A    between atoms: _294  and  _296
REMARK  126  A    between atoms: _296  and  _297
REMARK  127  A    between atoms: _296  and  _299
REMARK  128  A    between atoms: _299  and  _300
REMARK                            x       y       z     vdW  Elec       q    Type
REMARK                         _______ _______ _______ _____ _____    ______ ____
ROOT
ATOM      1  CG  LYS A   1     -20.502   9.210  25.807  0.00  0.00    -0.000 C 
ENDROOT
BRANCH   1   2
ATOM      2  CB  LYS A   1     -21.541   8.246  25.198  0.00  0.00    +0.025 C 
BRANCH   2   3
ATOM      3  CA  LYS A   1     -22.657   7.807  26.151  0.00  0.00    +0.133 C 
BRANCH   3   4
ATOM      4  N   LYS A   1     -23.501   6.794  25.502  0.00  0.00    -0.239 NA
ATOM      5  H   LYS A   1     -23.360   6.575  24.495  0.00  0.00    +0.142 HD
ENDBRANCH   3   4
BRANCH   3   6
ATOM      6  C   LYS A   1     -23.465   9.014  26.608  0.00  0.00    +0.224 C 
ATOM      7  O   LYS A   1     -24.324   9.522  25.886  0.00  0.00    -0.287 OA
ENDBRANCH   3   6
ENDBRANCH   2   3
ENDBRANCH   1   2
BRANCH   1   8
ATOM      8  CD  LYS A   1     -19.306   9.349  24.857  0.00  0.00    -0.024 C 
BRANCH   8   9
ATOM      9  CE  LYS A   1     -18.317  10.380  25.405  0.00  0.00    -0.086 C 
BRANCH   9  10
ATOM     10  NZ  LYS A   1     -17.836   9.995  26.778  0.00  0.00    +0.380 N 
ATOM     11  HZ1 LYS A   1     -18.648   9.937  27.425  0.00  0.00    -0.089 HD
ATOM     12  HZ2 LYS A   1     -17.167  10.712  27.123  0.00  0.00    -0.089 HD
ATOM     13  HZ3 LYS A   1     -17.361   9.071  26.731  0.00  0.00    -0.089 HD
ENDBRANCH   9  10
ENDBRANCH   8   9
ENDBRANCH   1   8
TORSDOF 7
REMARK  Name = ../refined-set-2016/2afx/2afx_pocket.pdb
REMARK  128 active torsions:
REMARK  status: ('A' for Active; 'I' for Inactive)
REMARK    1  A    between atoms: _1  and  _3
REMARK    2  A    between atoms: _3  and  _4
REMARK    3  A    between atoms: _3  and  _6
REMARK    4  A    between atoms: _6  and  _7
REMARK    5  A    between atoms: _12  and  _14
REMARK    6  A    between atoms: _14  and  _15
REMARK    7  A    between atoms: _14  and  _17
REMARK    8  A    between atoms: _17  and  _18
REMARK    9  A    between atoms: _18  and  _19
REMARK   10  A    between atoms: _19  and  _20
REMARK   11  A    between atoms: _20  and  _21
REMARK   12  A    between atoms: _25  and  _27
REMARK   13  A    between atoms: _27  and  _28
REMARK   14  A    between atoms: _27  and  _30
REMARK   15  A    between atoms: _30  and  _31
REMARK   16  A    between atoms: _37  and  _39
REMARK   17  A    between atoms: _39  and  _40
REMARK   18  A    between atoms: _39  and  _42
REMARK   19  A    between atoms: _42  and  _43
REMARK   20  A    between atoms: _46  and  _48
REMARK   21  A    between atoms: _48  and  _49
REMARK   22  A    between atoms: _48  and  _51
REMARK   23  A    between atoms: _51  and  _52
REMARK   24  A    between atoms: _52  and  _54
REMARK   25  A    between atoms: _54  and  ZN_303
REMARK   26  A    between atoms: _55  and  _57
REMARK   27  A    between atoms: _57  and  _58
REMARK   28  A    between atoms: _57  and  _60
REMARK   29  A    between atoms: _60  and  _61
REMARK   30  A    between atoms: _63  and  _65
REMARK   31  A    between atoms: _65  and  _66
REMARK   32  A    between atoms: _65  and  _68
REMARK   33  A    between atoms: _68  and  _69
REMARK   34  A    between atoms: _69  and  _70
REMARK   35  A    between atoms: _73  and  _75
REMARK   36  A    between atoms: _75  and  _76
REMARK   37  A    between atoms: _75  and  _78
REMARK   38  A    between atoms: _78  and  _79
REMARK   39  A    between atoms: _79  and  _80
REMARK   40  A    between atoms: _80  and  _82
REMARK   41  A    between atoms: _82  and  ZN_303
REMARK   42  A    between atoms: _83  and  _85
REMARK   43  A    between atoms: _85  and  _86
REMARK   44  A    between atoms: _89  and  _91
REMARK   45  A    between atoms: _91  and  _92
REMARK   46  A    between atoms: _91  and  _94
REMARK   47  A    between atoms: _94  and  _95
REMARK   48  A    between atoms: _100  and  _102
REMARK   49  A    between atoms: _102  and  _103
REMARK   50  A    between atoms: _102  and  _105
REMARK   51  A    between atoms: _105  and  _106
REMARK   52  A    between atoms: _116  and  _118
REMARK   53  A    between atoms: _118  and  _119
REMARK   54  A    between atoms: _118  and  _121
REMARK   55  A    between atoms: _121  and  _122
REMARK   56  A    between atoms: _124  and  _126
REMARK   57  A    between atoms: _126  and  _127
REMARK   58  A    between atoms: _126  and  _129
REMARK   59  A    between atoms: _129  and  _130
REMARK   60  A    between atoms: _132  and  _134
REMARK   61  A    between atoms: _134  and  _135
REMARK   62  A    between atoms: _134  and  _137
REMARK   63  A    between atoms: _137  and  _138
REMARK   64  A    between atoms: _141  and  _143
REMARK   65  A    between atoms: _143  and  _144
REMARK   66  A    between atoms: _143  and  _146
REMARK   67  A    between atoms: _146  and  _147
REMARK   68  A    between atoms: _150  and  _152
REMARK   69  A    between atoms: _152  and  _153
REMARK   70  A    between atoms: _152  and  _155
REMARK   71  A    between atoms: _155  and  _156
REMARK   72  A    between atoms: _159  and  _161
REMARK   73  A    between atoms: _161  and  _162
REMARK   74  A    between atoms: _161  and  _164
REMARK   75  A    between atoms: _164  and  _165
REMARK   76  A    between atoms: _168  and  _170
REMARK   77  A    between atoms: _170  and  _171
REMARK   78  A    between atoms: _170  and  _173
REMARK   79  A    between atoms: _173  and  _174
REMARK   80  A    between atoms: _177  and  _179
REMARK   81  A    between atoms: _179  and  _180
REMARK   82  A    between atoms: _179  and  _182
REMARK   83  A    between atoms: _185  and  _187
REMARK   84  A    between atoms: _187  and  _188
REMARK   85  A    between atoms: _187  and  _190
REMARK   86  A    between atoms: _190  and  _191
REMARK   87  A    between atoms: _194  and  _196
REMARK   88  A    between atoms: _196  and  _197
REMARK   89  A    between atoms: _196  and  _199
REMARK   90  A    between atoms: _199  and  _200
REMARK   91  A    between atoms: _200  and  _201
REMARK   92  A    between atoms: _206  and  _208
REMARK   93  A    between atoms: _208  and  _209
REMARK   94  A    between atoms: _208  and  _211
REMARK   95  A    between atoms: _211  and  _212
REMARK   96  A    between atoms: _215  and  _217
REMARK   97  A    between atoms: _217  and  _218
REMARK   98  A    between atoms: _217  and  _220
REMARK   99  A    between atoms: _220  and  _221
REMARK  100  A    between atoms: _224  and  _226
REMARK  101  A    between atoms: _226  and  _227
REMARK  102  A    between atoms: _226  and  _229
REMARK  103  A    between atoms: _229  and  _230
REMARK  104  A    between atoms: _235  and  _237
REMARK  105  A    between atoms: _237  and  _238
REMARK  106  A    between atoms: _237  and  _240
REMARK  107  A    between atoms: _240  and  _241
REMARK  108  A    between atoms: _246  and  _248
REMARK  109  A    between atoms: _248  and  _249
REMARK  110  A    between atoms: _248  and  _251
REMARK  111  A    between atoms: _251  and  _252
REMARK  112  A    between atoms: _255  and  _257
REMARK  113  A    between atoms: _257  and  _258
REMARK  114  A    between atoms: _257  and  _260
REMARK  115  A    between atoms: _260  and  _261
REMARK  116  A    between atoms: _267  and  _269
REMARK  117  A    between atoms: _269  and  _270
REMARK  118  A    between atoms: _269  and  _272
REMARK  119  A    between atoms: _272  and  _273
REMARK  120  A    between atoms: _283  and  _285
REMARK  121  A    between atoms: _285  and  _286
REMARK  122  A    between atoms: _285  and  _288
REMARK  123  A    between atoms: _288  and  _289
REMARK  124  A    between atoms: _293  and  ZN_303
REMARK  125  A    between atoms: _294  and  _296
REMARK  126  A    between atoms: _296  and  _297
REMARK  127  A    between atoms: _296  and  _299
REMARK  128  A    between atoms: _299  and  _300
REMARK                            x       y       z     vdW  Elec       q    Type
REMARK                         _______ _______ _______ _____ _____    ______ ____
ROOT
ATOM      1  CB  PHE A   1     -25.937  11.228  22.332  0.00  0.00    +0.051 C 
ENDROOT
BRANCH   1   2
ATOM      2  CG  PHE A   1     -24.921  10.250  21.787  0.00  0.00    -0.020 A 
ATOM      3  CD2 PHE A   1     -24.621   9.060  22.491  0.00  0.00    -0.004 A 
ATOM      4  CE2 PHE A   1     -23.737   8.115  21.963  0.00  0.00    -0.000 A 
ATOM      5  CZ  PHE A   1     -23.132   8.332  20.735  0.00  0.00    -0.000 A 
ATOM      6  CE1 PHE A   1     -23.411   9.508  20.028  0.00  0.00    -0.000 A 
ATOM      7  CD1 PHE A   1     -24.309  10.468  20.560  0.00  0.00    -0.004 A 
ENDBRANCH   1   2
BRANCH   1   8
ATOM      8  CA  PHE A   1     -27.328  11.116  21.663  0.00  0.00    +0.137 C 
BRANCH   8   9
ATOM      9  N   PHE A   1     -28.227  12.160  22.158  0.00  0.00    -0.239 NA
ATOM     10  H   PHE A   1     -28.049  12.594  23.086  0.00  0.00    +0.142 HD
ENDBRANCH   8   9
BRANCH   8  11
ATOM     11  C   PHE A   1     -27.915   9.715  21.899  0.00  0.00    +0.224 C 
ATOM     12  O   PHE A   1     -28.142   9.306  23.043  0.00  0.00    -0.287 OA
ENDBRANCH   8  11
ENDBRANCH   1   8
TORSDOF 4
REMARK  Name = ../refined-set-2016/2afx/2afx_pocket.pdb
REMARK  128 active torsions:
REMARK  status: ('A' for Active; 'I' for Inactive)
REMARK    1  A    between atoms: _1  and  _3
REMARK    2  A    between atoms: _3  and  _4
REMARK    3  A    between atoms: _3  and  _6
REMARK    4  A    between atoms: _6  and  _7
REMARK    5  A    between atoms: _12  and  _14
REMARK    6  A    between atoms: _14  and  _15
REMARK    7  A    between atoms: _14  and  _17
REMARK    8  A    between atoms: _17  and  _18
REMARK    9  A    between atoms: _18  and  _19
REMARK   10  A    between atoms: _19  and  _20
REMARK   11  A    between atoms: _20  and  _21
REMARK   12  A    between atoms: _25  and  _27
REMARK   13  A    between atoms: _27  and  _28
REMARK   14  A    between atoms: _27  and  _30
REMARK   15  A    between atoms: _30  and  _31
REMARK   16  A    between atoms: _37  and  _39
REMARK   17  A    between atoms: _39  and  _40
REMARK   18  A    between atoms: _39  and  _42
REMARK   19  A    between atoms: _42  and  _43
REMARK   20  A    between atoms: _46  and  _48
REMARK   21  A    between atoms: _48  and  _49
REMARK   22  A    between atoms: _48  and  _51
REMARK   23  A    between atoms: _51  and  _52
REMARK   24  A    between atoms: _52  and  _54
REMARK   25  A    between atoms: _54  and  ZN_303
REMARK   26  A    between atoms: _55  and  _57
REMARK   27  A    between atoms: _57  and  _58
REMARK   28  A    between atoms: _57  and  _60
REMARK   29  A    between atoms: _60  and  _61
REMARK   30  A    between atoms: _63  and  _65
REMARK   31  A    between atoms: _65  and  _66
REMARK   32  A    between atoms: _65  and  _68
REMARK   33  A    between atoms: _68  and  _69
REMARK   34  A    between atoms: _69  and  _70
REMARK   35  A    between atoms: _73  and  _75
REMARK   36  A    between atoms: _75  and  _76
REMARK   37  A    between atoms: _75  and  _78
REMARK   38  A    between atoms: _78  and  _79
REMARK   39  A    between atoms: _79  and  _80
REMARK   40  A    between atoms: _80  and  _82
REMARK   41  A    between atoms: _82  and  ZN_303
REMARK   42  A    between atoms: _83  and  _85
REMARK   43  A    between atoms: _85  and  _86
REMARK   44  A    between atoms: _89  and  _91
REMARK   45  A    between atoms: _91  and  _92
REMARK   46  A    between atoms: _91  and  _94
REMARK   47  A    between atoms: _94  and  _95
REMARK   48  A    between atoms: _100  and  _102
REMARK   49  A    between atoms: _102  and  _103
REMARK   50  A    between atoms: _102  and  _105
REMARK   51  A    between atoms: _105  and  _106
REMARK   52  A    between atoms: _116  and  _118
REMARK   53  A    between atoms: _118  and  _119
REMARK   54  A    between atoms: _118  and  _121
REMARK   55  A    between atoms: _121  and  _122
REMARK   56  A    between atoms: _124  and  _126
REMARK   57  A    between atoms: _126  and  _127
REMARK   58  A    between atoms: _126  and  _129
REMARK   59  A    between atoms: _129  and  _130
REMARK   60  A    between atoms: _132  and  _134
REMARK   61  A    between atoms: _134  and  _135
REMARK   62  A    between atoms: _134  and  _137
REMARK   63  A    between atoms: _137  and  _138
REMARK   64  A    between atoms: _141  and  _143
REMARK   65  A    between atoms: _143  and  _144
REMARK   66  A    between atoms: _143  and  _146
REMARK   67  A    between atoms: _146  and  _147
REMARK   68  A    between atoms: _150  and  _152
REMARK   69  A    between atoms: _152  and  _153
REMARK   70  A    between atoms: _152  and  _155
REMARK   71  A    between atoms: _155  and  _156
REMARK   72  A    between atoms: _159  and  _161
REMARK   73  A    between atoms: _161  and  _162
REMARK   74  A    between atoms: _161  and  _164
REMARK   75  A    between atoms: _164  and  _165
REMARK   76  A    between atoms: _168  and  _170
REMARK   77  A    between atoms: _170  and  _171
REMARK   78  A    between atoms: _170  and  _173
REMARK   79  A    between atoms: _173  and  _174
REMARK   80  A    between atoms: _177  and  _179
REMARK   81  A    between atoms: _179  and  _180
REMARK   82  A    between atoms: _179  and  _182
REMARK   83  A    between atoms: _185  and  _187
REMARK   84  A    between atoms: _187  and  _188
REMARK   85  A    between atoms: _187  and  _190
REMARK   86  A    between atoms: _190  and  _191
REMARK   87  A    between atoms: _194  and  _196
REMARK   88  A    between atoms: _196  and  _197
REMARK   89  A    between atoms: _196  and  _199
REMARK   90  A    between atoms: _199  and  _200
REMARK   91  A    between atoms: _200  and  _201
REMARK   92  A    between atoms: _206  and  _208
REMARK   93  A    between atoms: _208  and  _209
REMARK   94  A    between atoms: _208  and  _211
REMARK   95  A    between atoms: _211  and  _212
REMARK   96  A    between atoms: _215  and  _217
REMARK   97  A    between atoms: _217  and  _218
REMARK   98  A    between atoms: _217  and  _220
REMARK   99  A    between atoms: _220  and  _221
REMARK  100  A    between atoms: _224  and  _226
REMARK  101  A    between atoms: _226  and  _227
REMARK  102  A    between atoms: _226  and  _229
REMARK  103  A    between atoms: _229  and  _230
REMARK  104  A    between atoms: _235  and  _237
REMARK  105  A    between atoms: _237  and  _238
REMARK  106  A    between atoms: _237  and  _240
REMARK  107  A    between atoms: _240  and  _241
REMARK  108  A    between atoms: _246  and  _248
REMARK  109  A    between atoms: _248  and  _249
REMARK  110  A    between atoms: _248  and  _251
REMARK  111  A    between atoms: _251  and  _252
REMARK  112  A    between atoms: _255  and  _257
REMARK  113  A    between atoms: _257  and  _258
REMARK  114  A    between atoms: _257  and  _260
REMARK  115  A    between atoms: _260  and  _261
REMARK  116  A    between atoms: _267  and  _269
REMARK  117  A    between atoms: _269  and  _270
REMARK  118  A    between atoms: _269  and  _272
REMARK  119  A    between atoms: _272  and  _273
REMARK  120  A    between atoms: _283  and  _285
REMARK  121  A    between atoms: _285  and  _286
REMARK  122  A    between atoms: _285  and  _288
REMARK  123  A    between atoms: _288  and  _289
REMARK  124  A    between atoms: _293  and  ZN_303
REMARK  125  A    between atoms: _294  and  _296
REMARK  126  A    between atoms: _296  and  _297
REMARK  127  A    between atoms: _296  and  _299
REMARK  128  A    between atoms: _299  and  _300
REMARK                            x       y       z     vdW  Elec       q    Type
REMARK                         _______ _______ _______ _____ _____    ______ ____
ROOT
ATOM      1 ZN   UNK A   2     -18.800   5.131  22.147  0.00  0.00    +0.000 Zn
ENDROOT
BRANCH   1   2
ATOM      2  N   UNK A   2     -18.166   7.108  21.939  0.00  0.00    +0.000 N 
ATOM      3  C   UNK A   2     -17.205   7.803  22.521  0.00  0.00    +0.000 A 
ATOM      4  N   UNK A   2     -17.155   9.005  21.954  0.00  0.00    +0.000 NA
ATOM      5  C   UNK A   2     -18.119   9.077  20.977  0.00  0.00    +0.000 A 
ATOM      6  C   UNK A   2     -18.752   7.879  20.971  0.00  0.00    +0.000 A 
BRANCH   5   7
ATOM      7  C   UNK A   2     -18.343  10.310  20.141  0.00  0.00    +0.000 C 
BRANCH   7   8
ATOM      8  C   UNK A   2     -19.621  10.229  19.331  0.00  0.00    +0.000 C 
BRANCH   8   9
ATOM      9  N   UNK A   2     -19.455   9.280  18.223  0.00  0.00    +0.000 N 
ATOM     10  H   UNK A   2     -19.935   8.360  18.291  0.00  0.00    +0.000 HD
ATOM     11  C   TRP A   1     -18.729   9.528  17.141  0.00  0.00    +0.000 C 
ATOM     12  O   TRP A   1     -18.138  10.593  16.965  0.00  0.00    +0.000 OA
BRANCH  11  13
ATOM     13  CA  TRP A   1     -18.676   8.390  16.095  0.00  0.00    +0.000 C 
BRANCH  13  14
ATOM     14  N   TRP A   1     -19.045   8.792  14.727  0.00  0.00    +0.000 NA
ATOM     15  H   TRP A   1     -18.443   8.505  13.929  0.00  0.00    +0.000 HD
ENDBRANCH  13  14
BRANCH  13  16
ATOM     16  CB  TRP A   1     -17.267   7.752  16.059  0.00  0.00    +0.000 C 
BRANCH  16  17
ATOM     17  CG  TRP A   1     -16.775   7.257  17.388  0.00  0.00    +0.000 A 
ATOM     18  CD2 TRP A   1     -15.833   7.923  18.242  0.00  0.00    +0.000 A 
ATOM     19  CE2 TRP A   1     -15.586   7.072  19.348  0.00  0.00    +0.000 A 
ATOM     20  CZ2 TRP A   1     -14.699   7.427  20.390  0.00  0.00    +0.000 A 
ATOM     21  CH2 TRP A   1     -14.074   8.647  20.299  0.00  0.00    +0.000 A 
ATOM     22  CZ3 TRP A   1     -14.303   9.522  19.203  0.00  0.00    +0.000 A 
ATOM     23  NE1 TRP A   1     -16.341   5.940  19.177  0.00  0.00    +0.000 N 
ATOM     24  HE1 TRP A   1     -16.365   5.125  19.823  0.00  0.00    +0.000 HD
ATOM     25  CE3 TRP A   1     -15.176   9.168  18.178  0.00  0.00    +0.000 A 
ATOM     26  CD1 TRP A   1     -17.070   6.060  17.996  0.00  0.00    +0.000 A 
ENDBRANCH  16  17
ENDBRANCH  13  16
ENDBRANCH  11  13
ENDBRANCH   8   9
BRANCH   8  27
ATOM     27  C   UNK A   2     -20.119  11.608  18.947  0.00  0.00    +0.000 C 
ATOM     28  O   UNK A   2     -19.767  12.623  19.547  0.00  0.00    +0.000 OA
ENDBRANCH   8  27
ENDBRANCH   7   8
ENDBRANCH   5   7
ENDBRANCH   1   2
BRANCH   1  29
ATOM     29  O   UNK A   2     -20.033   5.039  20.556  0.00  0.00    +0.000 OA
BRANCH  29  30
ATOM     30  C   UNK A   2     -20.646   3.930  20.480  0.00  0.00    +0.000 C 
ATOM     31  O   UNK A   2     -20.405   2.989  21.255  0.00  0.00    +0.000 OA
BRANCH  30  32
ATOM     32  C   UNK A   2     -21.680   3.805  19.352  0.00  0.00    +0.000 C 
BRANCH  32  33
ATOM     33  C   UNK A   2     -22.571   2.536  19.412  0.00  0.00    +0.000 C 
BRANCH  33  35
ATOM     34  C   TRP A   1     -23.143   1.775  17.160  0.00  0.00    +0.000 C 
ATOM     35  N   UNK A   2     -23.351   2.609  18.170  0.00  0.00    +0.000 N 
ATOM     36  H   UNK A   2     -24.089   3.337  18.080  0.00  0.00    +0.000 HD
ATOM     37  O   TRP A   1     -22.492   0.725  17.221  0.00  0.00    +0.000 OA
BRANCH  34  38
ATOM     38  CA  TRP A   1     -23.879   2.137  15.882  0.00  0.00    +0.000 C 
BRANCH  38  39
ATOM     39  CB  TRP A   1     -22.746   2.627  14.917  0.00  0.00    +0.000 C 
ATOM     40  CG2 TRP A   1     -23.339   3.080  13.566  0.00  0.00    +0.000 C 
BRANCH  39  41
ATOM     41  OG1 TRP A   1     -22.047   3.733  15.540  0.00  0.00    +0.000 OA
ATOM     42  HG1 TRP A   1     -22.685   4.471  15.711  0.00  0.00    +0.000 HD
ENDBRANCH  39  41
ENDBRANCH  38  39
BRANCH  38  43
ATOM     43  N   TRP A   1     -24.847   3.190  16.186  0.00  0.00    +0.000 NA
ATOM     44  H   TRP A   1     -24.579   4.192  16.106  0.00  0.00    +0.000 HD
ENDBRANCH  38  43
ENDBRANCH  34  38
ENDBRANCH  33  35
BRANCH  33  45
ATOM     45  C   UNK A   2     -23.433   2.499  20.686  0.00  0.00    +0.000 C 
ATOM     46  O   UNK A   2     -23.483   3.499  21.403  0.00  0.00    +0.000 OA
ATOM     47  N   ALA A   3     -24.089   1.364  21.011  0.00  0.00    +0.000 N 
ATOM     48  H   ALA A   3     -24.637   1.358  21.895  0.00  0.00    +0.000 HD
BRANCH  47  49
ATOM     49  CA  ALA A   3     -24.082   0.137  20.203  0.00  0.00    +0.000 C 
BRANCH  49  50
ATOM     50  C   ALA A   3     -25.493  -0.444  20.079  0.00  0.00    +0.000 C 
ATOM     51  O   ALA A   3     -25.738  -1.649  20.255  0.00  0.00    +0.000 OA
ENDBRANCH  49  50
BRANCH  49  52
ATOM     52  CB  ALA A   3     -23.136  -0.905  20.840  0.00  0.00    +0.000 C 
BRANCH  52  53
ATOM     53  O   ALA A   3     -21.758  -0.610  20.526  0.00  0.00    +0.000 OA
ATOM     54  H   ALA A   3     -21.173  -1.290  20.944  0.00  0.00    +0.000 HD
ENDBRANCH  52  53
ENDBRANCH  49  52
ENDBRANCH  47  49
ENDBRANCH  33  45
ENDBRANCH  32  33
ENDBRANCH  30  32
ENDBRANCH  29  30
ENDBRANCH   1  29
BRANCH   1  55
ATOM     55  O   UNK A   2     -19.985   4.830  23.746  0.00  0.00    +0.000 OA
BRANCH  55  56
ATOM     56  C   UNK A   2     -19.437   5.156  24.808  0.00  0.00    +0.000 C 
ATOM     57  O   UNK A   2     -18.282   5.655  24.871  0.00  0.00    +0.000 OA
BRANCH  56  58
ATOM     58  C   UNK A   2     -20.267   4.851  26.066  0.00  0.00    +0.000 C 
BRANCH  58  59
ATOM     59  C   UNK A   2     -19.730   5.460  27.361  0.00  0.00    +0.000 C 
BRANCH  59  60
ATOM     60  C   UNK A   2     -18.643   4.626  28.052  0.00  0.00    +0.000 C 
BRANCH  60  61
ATOM     61  N   UNK A   2     -19.125   3.264  28.295  0.00  0.00    +0.000 N 
ATOM     62  C   TRP A   1     -18.252   2.272  28.482  0.00  0.00    +0.000 C 
ATOM     63  O   TRP A   1     -17.041   2.436  28.570  0.00  0.00    +0.000 OA
ATOM     64  H   UNK A   2     -20.146   3.070  28.322  0.00  0.00    +0.000 HD
BRANCH  62  65
ATOM     65  CA  TRP A   1     -18.857   0.882  28.623  0.00  0.00    +0.000 C 
BRANCH  65  66
ATOM     66  N   TRP A   1     -20.087   1.001  29.400  0.00  0.00    +0.000 NA
ATOM     67  H   TRP A   1     -21.015   0.832  28.961  0.00  0.00    +0.000 HD
ENDBRANCH  65  66
BRANCH  65  68
ATOM     68  CB  TRP A   1     -19.161   0.336  27.230  0.00  0.00    +0.000 C 
BRANCH  68  69
ATOM     69  CG  TRP A   1     -17.921   0.059  26.337  0.00  0.00    +0.000 C 
BRANCH  69  70
ATOM     70  CD  TRP A   1     -17.492   1.239  25.441  0.00  0.00    +0.000 C 
ATOM     71  OE2 TRP A   1     -18.133   2.301  25.487  0.00  0.00    +0.000 OA
ATOM     72  OE1 TRP A   1     -16.490   1.082  24.679  0.00  0.00    +0.000 OA
ENDBRANCH  69  70
ENDBRANCH  68  69
ENDBRANCH  65  68
ENDBRANCH  62  65
ENDBRANCH  60  61
BRANCH  60  73
ATOM     73  C   UNK A   2     -18.181   5.405  29.271  0.00  0.00    +0.000 C 
ATOM     74  O   UNK A   2     -18.657   5.184  30.365  0.00  0.00    +0.000 OA
ATOM     75  N   ALA A   3     -17.245   6.331  29.054  0.00  0.00    +0.000 N 
ATOM     76  H   ALA A   3     -16.829   6.435  28.107  0.00  0.00    +0.000 HD
BRANCH  75  77
ATOM     77  CA  ALA A   3     -16.808   7.190  30.132  0.00  0.00    +0.000 C 
ATOM     78  CB  ALA A   3     -15.550   7.943  29.699  0.00  0.00    +0.000 C 
BRANCH  77  79
ATOM     79  C   ALA A   3     -17.943   8.196  30.370  0.00  0.00    +0.000 C 
ATOM     80  O   ALA A   3     -18.677   8.554  29.439  0.00  0.00    +0.000 OA
ENDBRANCH  77  79
ENDBRANCH  75  77
ENDBRANCH  60  73
ENDBRANCH  59  60
ENDBRANCH  58  59
ENDBRANCH  56  58
ENDBRANCH  55  56
ENDBRANCH   1  55
TORSDOF 37
REMARK  Name = ../refined-set-2016/2afx/2afx_pocket.pdb
REMARK  128 active torsions:
REMARK  status: ('A' for Active; 'I' for Inactive)
REMARK    1  A    between atoms: _1  and  _3
REMARK    2  A    between atoms: _3  and  _4
REMARK    3  A    between atoms: _3  and  _6
REMARK    4  A    between atoms: _6  and  _7
REMARK    5  A    between atoms: _12  and  _14
REMARK    6  A    between atoms: _14  and  _15
REMARK    7  A    between atoms: _14  and  _17
REMARK    8  A    between atoms: _17  and  _18
REMARK    9  A    between atoms: _18  and  _19
REMARK   10  A    between atoms: _19  and  _20
REMARK   11  A    between atoms: _20  and  _21
REMARK   12  A    between atoms: _25  and  _27
REMARK   13  A    between atoms: _27  and  _28
REMARK   14  A    between atoms: _27  and  _30
REMARK   15  A    between atoms: _30  and  _31
REMARK   16  A    between atoms: _37  and  _39
REMARK   17  A    between atoms: _39  and  _40
REMARK   18  A    between atoms: _39  and  _42
REMARK   19  A    between atoms: _42  and  _43
REMARK   20  A    between atoms: _46  and  _48
REMARK   21  A    between atoms: _48  and  _49
REMARK   22  A    between atoms: _48  and  _51
REMARK   23  A    between atoms: _51  and  _52
REMARK   24  A    between atoms: _52  and  _54
REMARK   25  A    between atoms: _54  and  ZN_303
REMARK   26  A    between atoms: _55  and  _57
REMARK   27  A    between atoms: _57  and  _58
REMARK   28  A    between atoms: _57  and  _60
REMARK   29  A    between atoms: _60  and  _61
REMARK   30  A    between atoms: _63  and  _65
REMARK   31  A    between atoms: _65  and  _66
REMARK   32  A    between atoms: _65  and  _68
REMARK   33  A    between atoms: _68  and  _69
REMARK   34  A    between atoms: _69  and  _70
REMARK   35  A    between atoms: _73  and  _75
REMARK   36  A    between atoms: _75  and  _76
REMARK   37  A    between atoms: _75  and  _78
REMARK   38  A    between atoms: _78  and  _79
REMARK   39  A    between atoms: _79  and  _80
REMARK   40  A    between atoms: _80  and  _82
REMARK   41  A    between atoms: _82  and  ZN_303
REMARK   42  A    between atoms: _83  and  _85
REMARK   43  A    between atoms: _85  and  _86
REMARK   44  A    between atoms: _89  and  _91
REMARK   45  A    between atoms: _91  and  _92
REMARK   46  A    between atoms: _91  and  _94
REMARK   47  A    between atoms: _94  and  _95
REMARK   48  A    between atoms: _100  and  _102
REMARK   49  A    between atoms: _102  and  _103
REMARK   50  A    between atoms: _102  and  _105
REMARK   51  A    between atoms: _105  and  _106
REMARK   52  A    between atoms: _116  and  _118
REMARK   53  A    between atoms: _118  and  _119
REMARK   54  A    between atoms: _118  and  _121
REMARK   55  A    between atoms: _121  and  _122
REMARK   56  A    between atoms: _124  and  _126
REMARK   57  A    between atoms: _126  and  _127
REMARK   58  A    between atoms: _126  and  _129
REMARK   59  A    between atoms: _129  and  _130
REMARK   60  A    between atoms: _132  and  _134
REMARK   61  A    between atoms: _134  and  _135
REMARK   62  A    between atoms: _134  and  _137
REMARK   63  A    between atoms: _137  and  _138
REMARK   64  A    between atoms: _141  and  _143
REMARK   65  A    between atoms: _143  and  _144
REMARK   66  A    between atoms: _143  and  _146
REMARK   67  A    between atoms: _146  and  _147
REMARK   68  A    between atoms: _150  and  _152
REMARK   69  A    between atoms: _152  and  _153
REMARK   70  A    between atoms: _152  and  _155
REMARK   71  A    between atoms: _155  and  _156
REMARK   72  A    between atoms: _159  and  _161
REMARK   73  A    between atoms: _161  and  _162
REMARK   74  A    between atoms: _161  and  _164
REMARK   75  A    between atoms: _164  and  _165
REMARK   76  A    between atoms: _168  and  _170
REMARK   77  A    between atoms: _170  and  _171
REMARK   78  A    between atoms: _170  and  _173
REMARK   79  A    between atoms: _173  and  _174
REMARK   80  A    between atoms: _177  and  _179
REMARK   81  A    between atoms: _179  and  _180
REMARK   82  A    between atoms: _179  and  _182
REMARK   83  A    between atoms: _185  and  _187
REMARK   84  A    between atoms: _187  and  _188
REMARK   85  A    between atoms: _187  and  _190
REMARK   86  A    between atoms: _190  and  _191
REMARK   87  A    between atoms: _194  and  _196
REMARK   88  A    between atoms: _196  and  _197
REMARK   89  A    between atoms: _196  and  _199
REMARK   90  A    between atoms: _199  and  _200
REMARK   91  A    between atoms: _200  and  _201
REMARK   92  A    between atoms: _206  and  _208
REMARK   93  A    between atoms: _208  and  _209
REMARK   94  A    between atoms: _208  and  _211
REMARK   95  A    between atoms: _211  and  _212
REMARK   96  A    between atoms: _215  and  _217
REMARK   97  A    between atoms: _217  and  _218
REMARK   98  A    between atoms: _217  and  _220
REMARK   99  A    between atoms: _220  and  _221
REMARK  100  A    between atoms: _224  and  _226
REMARK  101  A    between atoms: _226  and  _227
REMARK  102  A    between atoms: _226  and  _229
REMARK  103  A    between atoms: _229  and  _230
REMARK  104  A    between atoms: _235  and  _237
REMARK  105  A    between atoms: _237  and  _238
REMARK  106  A    between atoms: _237  and  _240
REMARK  107  A    between atoms: _240  and  _241
REMARK  108  A    between atoms: _246  and  _248
REMARK  109  A    between atoms: _248  and  _249
REMARK  110  A    between atoms: _248  and  _251
REMARK  111  A    between atoms: _251  and  _252
REMARK  112  A    between atoms: _255  and  _257
REMARK  113  A    between atoms: _257  and  _258
REMARK  114  A    between atoms: _257  and  _260
REMARK  115  A    between atoms: _260  and  _261
REMARK  116  A    between atoms: _267  and  _269
REMARK  117  A    between atoms: _269  and  _270
REMARK  118  A    between atoms: _269  and  _272
REMARK  119  A    between atoms: _272  and  _273
REMARK  120  A    between atoms: _283  and  _285
REMARK  121  A    between atoms: _285  and  _286
REMARK  122  A    between atoms: _285  and  _288
REMARK  123  A    between atoms: _288  and  _289
REMARK  124  A    between atoms: _293  and  ZN_303
REMARK  125  A    between atoms: _294  and  _296
REMARK  126  A    between atoms: _296  and  _297
REMARK  127  A    between atoms: _296  and  _299
REMARK  128  A    between atoms: _299  and  _300
REMARK                            x       y       z     vdW  Elec       q    Type
REMARK                         _______ _______ _______ _____ _____    ______ ____
ROOT
ATOM      1  CA  TRP A   2     -12.290   8.247  28.467  0.00  0.00    +0.153 C 
ENDROOT
BRANCH   1   4
ATOM      2  C   HIS A   1     -13.124  10.473  28.961  0.00  0.00    +0.239 C 
ATOM      3  O   HIS A   1     -12.768  10.353  30.142  0.00  0.00    -0.274 OA
ATOM      4  N   TRP A   2     -12.929   9.509  28.062  0.00  0.00    -0.297 N 
ATOM      5  H   TRP A   2     -13.228   9.648  27.076  0.00  0.00    +0.150 HD
BRANCH   2   6
ATOM      6  CA  HIS A   1     -13.855  11.752  28.504  0.00  0.00    +0.151 C 
BRANCH   6   7
ATOM      7  N   HIS A   1     -14.582  12.207  29.686  0.00  0.00    -0.238 NA
ATOM      8  H   HIS A   1     -14.075  12.655  30.476  0.00  0.00    +0.142 HD
ENDBRANCH   6   7
BRANCH   6   9
ATOM      9  CB  HIS A   1     -12.875  12.818  27.982  0.00  0.00    +0.074 C 
BRANCH   9  10
ATOM     10  CG  HIS A   1     -13.238  13.343  26.623  0.00  0.00    +0.082 A 
ATOM     11  CD2 HIS A   1     -13.657  14.569  26.222  0.00  0.00    +0.115 A 
ATOM     12  NE2 HIS A   1     -13.975  14.473  24.886  0.00  0.00    -0.221 NA
ATOM     13  CE1 HIS A   1     -13.746  13.237  24.477  0.00  0.00    +0.199 A 
ATOM     14  ND1 HIS A   1     -13.297  12.534  25.503  0.00  0.00    -0.227 NA
ENDBRANCH   9  10
ENDBRANCH   6   9
ENDBRANCH   2   6
ENDBRANCH   1   4
BRANCH   1  15
ATOM     15  C   TRP A   2     -11.027   8.411  29.269  0.00  0.00    +0.241 C 
ATOM     16  N   SER A   3     -10.929   7.594  30.302  0.00  0.00    -0.296 N 
ATOM     17  H   SER A   3     -11.718   6.949  30.509  0.00  0.00    +0.150 HD
ATOM     18  O   TRP A   2     -10.158   9.237  28.953  0.00  0.00    -0.273 OA
BRANCH  16  19
ATOM     19  CA  SER A   3      -9.767   7.566  31.152  0.00  0.00    +0.166 C 
BRANCH  19  20
ATOM     20  CB  SER A   3      -9.860   6.169  31.753  0.00  0.00    +0.229 C 
ATOM     21  OG  SER A   3     -10.899   5.527  31.659  0.00  0.00    -0.286 OA
ENDBRANCH  19  20
BRANCH  19  22
ATOM     22  C   SER A   3      -9.852   8.615  32.255  0.00  0.00    +0.165 C 
BRANCH  22  23
ATOM     23  O   SER A   3     -10.596   8.104  33.340  0.00  0.00    -0.380 OA
ATOM     24  H   SER A   3     -10.649   8.788  34.054  0.00  0.00    +0.211 HD
ENDBRANCH  22  23
ENDBRANCH  19  22
ENDBRANCH  16  19
ENDBRANCH   1  15
BRANCH   1  25
ATOM     25  CB  TRP A   2     -11.931   7.341  27.279  0.00  0.00    +0.057 C 
BRANCH  25  26
ATOM     26  CG  TRP A   2     -11.257   6.007  27.691  0.00  0.00    -0.002 A 
ATOM     27  CD2 TRP A   2      -9.869   5.797  28.051  0.00  0.00    +0.013 A 
ATOM     28  CE2 TRP A   2      -9.712   4.428  28.349  0.00  0.00    +0.056 A 
ATOM     29  CZ2 TRP A   2      -8.465   3.872  28.742  0.00  0.00    +0.017 A 
ATOM     30  CH2 TRP A   2      -7.377   4.715  28.828  0.00  0.00    +0.001 A 
ATOM     31  CZ3 TRP A   2      -7.498   6.087  28.537  0.00  0.00    +0.000 A 
ATOM     32  NE1 TRP A   2     -10.936   3.833  28.180  0.00  0.00    -0.352 N 
ATOM     33  HE1 TRP A   2     -11.138   2.823  28.324  0.00  0.00    +0.166 HD
ATOM     34  CE3 TRP A   2      -8.747   6.636  28.147  0.00  0.00    +0.001 A 
ATOM     35  CD1 TRP A   2     -11.857   4.783  27.789  0.00  0.00    +0.068 A 
ENDBRANCH  25  26
ENDBRANCH   1  25
TORSDOF 12
REMARK  Name = ../refined-set-2016/2afx/2afx_pocket.pdb
REMARK  128 active torsions:
REMARK  status: ('A' for Active; 'I' for Inactive)
REMARK    1  A    between atoms: _1  and  _3
REMARK    2  A    between atoms: _3  and  _4
REMARK    3  A    between atoms: _3  and  _6
REMARK    4  A    between atoms: _6  and  _7
REMARK    5  A    between atoms: _12  and  _14
REMARK    6  A    between atoms: _14  and  _15
REMARK    7  A    between atoms: _14  and  _17
REMARK    8  A    between atoms: _17  and  _18
REMARK    9  A    between atoms: _18  and  _19
REMARK   10  A    between atoms: _19  and  _20
REMARK   11  A    between atoms: _20  and  _21
REMARK   12  A    between atoms: _25  and  _27
REMARK   13  A    between atoms: _27  and  _28
REMARK   14  A    between atoms: _27  and  _30
REMARK   15  A    between atoms: _30  and  _31
REMARK   16  A    between atoms: _37  and  _39
REMARK   17  A    between atoms: _39  and  _40
REMARK   18  A    between atoms: _39  and  _42
REMARK   19  A    between atoms: _42  and  _43
REMARK   20  A    between atoms: _46  and  _48
REMARK   21  A    between atoms: _48  and  _49
REMARK   22  A    between atoms: _48  and  _51
REMARK   23  A    between atoms: _51  and  _52
REMARK   24  A    between atoms: _52  and  _54
REMARK   25  A    between atoms: _54  and  ZN_303
REMARK   26  A    between atoms: _55  and  _57
REMARK   27  A    between atoms: _57  and  _58
REMARK   28  A    between atoms: _57  and  _60
REMARK   29  A    between atoms: _60  and  _61
REMARK   30  A    between atoms: _63  and  _65
REMARK   31  A    between atoms: _65  and  _66
REMARK   32  A    between atoms: _65  and  _68
REMARK   33  A    between atoms: _68  and  _69
REMARK   34  A    between atoms: _69  and  _70
REMARK   35  A    between atoms: _73  and  _75
REMARK   36  A    between atoms: _75  and  _76
REMARK   37  A    between atoms: _75  and  _78
REMARK   38  A    between atoms: _78  and  _79
REMARK   39  A    between atoms: _79  and  _80
REMARK   40  A    between atoms: _80  and  _82
REMARK   41  A    between atoms: _82  and  ZN_303
REMARK   42  A    between atoms: _83  and  _85
REMARK   43  A    between atoms: _85  and  _86
REMARK   44  A    between atoms: _89  and  _91
REMARK   45  A    between atoms: _91  and  _92
REMARK   46  A    between atoms: _91  and  _94
REMARK   47  A    between atoms: _94  and  _95
REMARK   48  A    between atoms: _100  and  _102
REMARK   49  A    between atoms: _102  and  _103
REMARK   50  A    between atoms: _102  and  _105
REMARK   51  A    between atoms: _105  and  _106
REMARK   52  A    between atoms: _116  and  _118
REMARK   53  A    between atoms: _118  and  _119
REMARK   54  A    between atoms: _118  and  _121
REMARK   55  A    between atoms: _121  and  _122
REMARK   56  A    between atoms: _124  and  _126
REMARK   57  A    between atoms: _126  and  _127
REMARK   58  A    between atoms: _126  and  _129
REMARK   59  A    between atoms: _129  and  _130
REMARK   60  A    between atoms: _132  and  _134
REMARK   61  A    between atoms: _134  and  _135
REMARK   62  A    between atoms: _134  and  _137
REMARK   63  A    between atoms: _137  and  _138
REMARK   64  A    between atoms: _141  and  _143
REMARK   65  A    between atoms: _143  and  _144
REMARK   66  A    between atoms: _143  and  _146
REMARK   67  A    between atoms: _146  and  _147
REMARK   68  A    between atoms: _150  and  _152
REMARK   69  A    between atoms: _152  and  _153
REMARK   70  A    between atoms: _152  and  _155
REMARK   71  A    between atoms: _155  and  _156
REMARK   72  A    between atoms: _159  and  _161
REMARK   73  A    between atoms: _161  and  _162
REMARK   74  A    between atoms: _161  and  _164
REMARK   75  A    between atoms: _164  and  _165
REMARK   76  A    between atoms: _168  and  _170
REMARK   77  A    between atoms: _170  and  _171
REMARK   78  A    between atoms: _170  and  _173
REMARK   79  A    between atoms: _173  and  _174
REMARK   80  A    between atoms: _177  and  _179
REMARK   81  A    between atoms: _179  and  _180
REMARK   82  A    between atoms: _179  and  _182
REMARK   83  A    between atoms: _185  and  _187
REMARK   84  A    between atoms: _187  and  _188
REMARK   85  A    between atoms: _187  and  _190
REMARK   86  A    between atoms: _190  and  _191
REMARK   87  A    between atoms: _194  and  _196
REMARK   88  A    between atoms: _196  and  _197
REMARK   89  A    between atoms: _196  and  _199
REMARK   90  A    between atoms: _199  and  _200
REMARK   91  A    between atoms: _200  and  _201
REMARK   92  A    between atoms: _206  and  _208
REMARK   93  A    between atoms: _208  and  _209
REMARK   94  A    between atoms: _208  and  _211
REMARK   95  A    between atoms: _211  and  _212
REMARK   96  A    between atoms: _215  and  _217
REMARK   97  A    between atoms: _217  and  _218
REMARK   98  A    between atoms: _217  and  _220
REMARK   99  A    between atoms: _220  and  _221
REMARK  100  A    between atoms: _224  and  _226
REMARK  101  A    between atoms: _226  and  _227
REMARK  102  A    between atoms: _226  and  _229
REMARK  103  A    between atoms: _229  and  _230
REMARK  104  A    between atoms: _235  and  _237
REMARK  105  A    between atoms: _237  and  _238
REMARK  106  A    between atoms: _237  and  _240
REMARK  107  A    between atoms: _240  and  _241
REMARK  108  A    between atoms: _246  and  _248
REMARK  109  A    between atoms: _248  and  _249
REMARK  110  A    between atoms: _248  and  _251
REMARK  111  A    between atoms: _251  and  _252
REMARK  112  A    between atoms: _255  and  _257
REMARK  113  A    between atoms: _257  and  _258
REMARK  114  A    between atoms: _257  and  _260
REMARK  115  A    between atoms: _260  and  _261
REMARK  116  A    between atoms: _267  and  _269
REMARK  117  A    between atoms: _269  and  _270
REMARK  118  A    between atoms: _269  and  _272
REMARK  119  A    between atoms: _272  and  _273
REMARK  120  A    between atoms: _283  and  _285
REMARK  121  A    between atoms: _285  and  _286
REMARK  122  A    between atoms: _285  and  _288
REMARK  123  A    between atoms: _288  and  _289
REMARK  124  A    between atoms: _293  and  ZN_303
REMARK  125  A    between atoms: _294  and  _296
REMARK  126  A    between atoms: _296  and  _297
REMARK  127  A    between atoms: _296  and  _299
REMARK  128  A    between atoms: _299  and  _300
REMARK                            x       y       z     vdW  Elec       q    Type
REMARK                         _______ _______ _______ _____ _____    ______ ____
ROOT
ATOM      1  C   SER A   1     -14.999   2.218  31.774  0.00  0.00    +0.241 C 
ATOM      2  O   SER A   1     -14.544   1.822  32.858  0.00  0.00    -0.274 OA
ATOM      3  N   LEU A   2     -15.574   1.416  30.879  0.00  0.00    -0.298 N 
ATOM      4  H   LEU A   2     -15.968   1.828  30.009  0.00  0.00    +0.150 HD
ENDROOT
BRANCH   1   5
ATOM      5  CA  SER A   1     -14.916   3.688  31.397  0.00  0.00    +0.174 C 
BRANCH   5   6
ATOM      6  N   SER A   1     -14.624   4.457  32.620  0.00  0.00    -0.236 NA
ATOM      7  H   SER A   1     -14.796   4.004  33.540  0.00  0.00    +0.142 HD
ENDBRANCH   5   6
BRANCH   5   8
ATOM      8  CB  SER A   1     -13.810   3.870  30.348  0.00  0.00    +0.163 C 
BRANCH   8   9
ATOM      9  OG  SER A   1     -12.593   3.328  30.808  0.00  0.00    -0.380 OA
ATOM     10  H   SER A   1     -12.710   2.361  30.986  0.00  0.00    +0.211 HD
ENDBRANCH   8   9
ENDBRANCH   5   8
ENDBRANCH   1   5
BRANCH   3  11
ATOM     11  CA  LEU A   2     -15.665  -0.027  31.087  0.00  0.00    +0.137 C 
BRANCH  11  12
ATOM     12  C   LEU A   2     -16.144  -0.451  32.473  0.00  0.00    +0.227 C 
ATOM     13  O   LEU A   2     -15.632  -1.430  33.030  0.00  0.00    -0.286 OA
ENDBRANCH  11  12
BRANCH  11  14
ATOM     14  CB  LEU A   2     -14.291  -0.660  30.826  0.00  0.00    +0.028 C 
BRANCH  14  15
ATOM     15  CG  LEU A   2     -13.532  -0.180  29.570  0.00  0.00    +0.002 C 
ATOM     16  CD2 LEU A   2     -12.240  -0.993  29.402  0.00  0.00    +0.000 C 
ATOM     17  CD1 LEU A   2     -14.470  -0.341  28.340  0.00  0.00    +0.000 C 
ENDBRANCH  14  15
ENDBRANCH  11  14
ENDBRANCH   3  11
TORSDOF 8
REMARK  Name = ../refined-set-2016/2afx/2afx_pocket.pdb
REMARK  128 active torsions:
REMARK  status: ('A' for Active; 'I' for Inactive)
REMARK    1  A    between atoms: _1  and  _3
REMARK    2  A    between atoms: _3  and  _4
REMARK    3  A    between atoms: _3  and  _6
REMARK    4  A    between atoms: _6  and  _7
REMARK    5  A    between atoms: _12  and  _14
REMARK    6  A    between atoms: _14  and  _15
REMARK    7  A    between atoms: _14  and  _17
REMARK    8  A    between atoms: _17  and  _18
REMARK    9  A    between atoms: _18  and  _19
REMARK   10  A    between atoms: _19  and  _20
REMARK   11  A    between atoms: _20  and  _21
REMARK   12  A    between atoms: _25  and  _27
REMARK   13  A    between atoms: _27  and  _28
REMARK   14  A    between atoms: _27  and  _30
REMARK   15  A    between atoms: _30  and  _31
REMARK   16  A    between atoms: _37  and  _39
REMARK   17  A    between atoms: _39  and  _40
REMARK   18  A    between atoms: _39  and  _42
REMARK   19  A    between atoms: _42  and  _43
REMARK   20  A    between atoms: _46  and  _48
REMARK   21  A    between atoms: _48  and  _49
REMARK   22  A    between atoms: _48  and  _51
REMARK   23  A    between atoms: _51  and  _52
REMARK   24  A    between atoms: _52  and  _54
REMARK   25  A    between atoms: _54  and  ZN_303
REMARK   26  A    between atoms: _55  and  _57
REMARK   27  A    between atoms: _57  and  _58
REMARK   28  A    between atoms: _57  and  _60
REMARK   29  A    between atoms: _60  and  _61
REMARK   30  A    between atoms: _63  and  _65
REMARK   31  A    between atoms: _65  and  _66
REMARK   32  A    between atoms: _65  and  _68
REMARK   33  A    between atoms: _68  and  _69
REMARK   34  A    between atoms: _69  and  _70
REMARK   35  A    between atoms: _73  and  _75
REMARK   36  A    between atoms: _75  and  _76
REMARK   37  A    between atoms: _75  and  _78
REMARK   38  A    between atoms: _78  and  _79
REMARK   39  A    between atoms: _79  and  _80
REMARK   40  A    between atoms: _80  and  _82
REMARK   41  A    between atoms: _82  and  ZN_303
REMARK   42  A    between atoms: _83  and  _85
REMARK   43  A    between atoms: _85  and  _86
REMARK   44  A    between atoms: _89  and  _91
REMARK   45  A    between atoms: _91  and  _92
REMARK   46  A    between atoms: _91  and  _94
REMARK   47  A    between atoms: _94  and  _95
REMARK   48  A    between atoms: _100  and  _102
REMARK   49  A    between atoms: _102  and  _103
REMARK   50  A    between atoms: _102  and  _105
REMARK   51  A    between atoms: _105  and  _106
REMARK   52  A    between atoms: _116  and  _118
REMARK   53  A    between atoms: _118  and  _119
REMARK   54  A    between atoms: _118  and  _121
REMARK   55  A    between atoms: _121  and  _122
REMARK   56  A    between atoms: _124  and  _126
REMARK   57  A    between atoms: _126  and  _127
REMARK   58  A    between atoms: _126  and  _129
REMARK   59  A    between atoms: _129  and  _130
REMARK   60  A    between atoms: _132  and  _134
REMARK   61  A    between atoms: _134  and  _135
REMARK   62  A    between atoms: _134  and  _137
REMARK   63  A    between atoms: _137  and  _138
REMARK   64  A    between atoms: _141  and  _143
REMARK   65  A    between atoms: _143  and  _144
REMARK   66  A    between atoms: _143  and  _146
REMARK   67  A    between atoms: _146  and  _147
REMARK   68  A    between atoms: _150  and  _152
REMARK   69  A    between atoms: _152  and  _153
REMARK   70  A    between atoms: _152  and  _155
REMARK   71  A    between atoms: _155  and  _156
REMARK   72  A    between atoms: _159  and  _161
REMARK   73  A    between atoms: _161  and  _162
REMARK   74  A    between atoms: _161  and  _164
REMARK   75  A    between atoms: _164  and  _165
REMARK   76  A    between atoms: _168  and  _170
REMARK   77  A    between atoms: _170  and  _171
REMARK   78  A    between atoms: _170  and  _173
REMARK   79  A    between atoms: _173  and  _174
REMARK   80  A    between atoms: _177  and  _179
REMARK   81  A    between atoms: _179  and  _180
REMARK   82  A    between atoms: _179  and  _182
REMARK   83  A    between atoms: _185  and  _187
REMARK   84  A    between atoms: _187  and  _188
REMARK   85  A    between atoms: _187  and  _190
REMARK   86  A    between atoms: _190  and  _191
REMARK   87  A    between atoms: _194  and  _196
REMARK   88  A    between atoms: _196  and  _197
REMARK   89  A    between atoms: _196  and  _199
REMARK   90  A    between atoms: _199  and  _200
REMARK   91  A    between atoms: _200  and  _201
REMARK   92  A    between atoms: _206  and  _208
REMARK   93  A    between atoms: _208  and  _209
REMARK   94  A    between atoms: _208  and  _211
REMARK   95  A    between atoms: _211  and  _212
REMARK   96  A    between atoms: _215  and  _217
REMARK   97  A    between atoms: _217  and  _218
REMARK   98  A    between atoms: _217  and  _220
REMARK   99  A    between atoms: _220  and  _221
REMARK  100  A    between atoms: _224  and  _226
REMARK  101  A    between atoms: _226  and  _227
REMARK  102  A    between atoms: _226  and  _229
REMARK  103  A    between atoms: _229  and  _230
REMARK  104  A    between atoms: _235  and  _237
REMARK  105  A    between atoms: _237  and  _238
REMARK  106  A    between atoms: _237  and  _240
REMARK  107  A    between atoms: _240  and  _241
REMARK  108  A    between atoms: _246  and  _248
REMARK  109  A    between atoms: _248  and  _249
REMARK  110  A    between atoms: _248  and  _251
REMARK  111  A    between atoms: _251  and  _252
REMARK  112  A    between atoms: _255  and  _257
REMARK  113  A    between atoms: _257  and  _258
REMARK  114  A    between atoms: _257  and  _260
REMARK  115  A    between atoms: _260  and  _261
REMARK  116  A    between atoms: _267  and  _269
REMARK  117  A    between atoms: _269  and  _270
REMARK  118  A    between atoms: _269  and  _272
REMARK  119  A    between atoms: _272  and  _273
REMARK  120  A    between atoms: _283  and  _285
REMARK  121  A    between atoms: _285  and  _286
REMARK  122  A    between atoms: _285  and  _288
REMARK  123  A    between atoms: _288  and  _289
REMARK  124  A    between atoms: _293  and  ZN_303
REMARK  125  A    between atoms: _294  and  _296
REMARK  126  A    between atoms: _296  and  _297
REMARK  127  A    between atoms: _296  and  _299
REMARK  128  A    between atoms: _299  and  _300
REMARK                            x       y       z     vdW  Elec       q    Type
REMARK                         _______ _______ _______ _____ _____    ______ ____
ROOT
ATOM      1  C   LEU A   2     -19.535  -4.817  19.070  0.00  0.00    +0.241 C 
ATOM      2  O   LEU A   2     -20.102  -4.540  20.126  0.00  0.00    -0.273 OA
ATOM      3  N   ASP A   3     -18.992  -3.878  18.284  0.00  0.00    -0.297 N 
ATOM      4  H   ASP A   3     -18.517  -4.143  17.398  0.00  0.00    +0.150 HD
ENDROOT
BRANCH   3   5
ATOM      5  CA  ASP A   3     -19.076  -2.474  18.688  0.00  0.00    +0.160 C 
BRANCH   5   6
ATOM      6  C   ASP A   3     -18.953  -1.610  17.425  0.00  0.00    +0.241 C 
ATOM      7  N   LEU A   4     -19.682  -0.487  17.412  0.00  0.00    -0.298 N 
ATOM      8  H   LEU A   4     -20.313  -0.295  18.216  0.00  0.00    +0.150 HD
ATOM      9  O   ASP A   3     -18.260  -2.002  16.465  0.00  0.00    -0.273 OA
BRANCH   7  10
ATOM     10  CA  LEU A   4     -19.630   0.489  16.310  0.00  0.00    +0.137 C 
BRANCH  10  11
ATOM     11  C   LEU A   4     -19.947  -0.106  14.953  0.00  0.00    +0.227 C 
ATOM     12  O   LEU A   4     -19.275   0.184  13.959  0.00  0.00    -0.286 OA
ENDBRANCH  10  11
BRANCH  10  13
ATOM     13  CB  LEU A   4     -18.233   1.142  16.251  0.00  0.00    +0.028 C 
BRANCH  13  14
ATOM     14  CG  LEU A   4     -17.705   1.727  17.561  0.00  0.00    +0.002 C 
ATOM     15  CD2 LEU A   4     -18.752   2.691  18.183  0.00  0.00    +0.000 C 
ATOM     16  CD1 LEU A   4     -16.369   2.437  17.308  0.00  0.00    +0.000 C 
ENDBRANCH  13  14
ENDBRANCH  10  13
ENDBRANCH   7  10
ENDBRANCH   5   6
BRANCH   5  17
ATOM     17  CB  ASP A   3     -17.921  -2.144  19.676  0.00  0.00    +0.143 C 
BRANCH  17  18
ATOM     18  CG  ASP A   3     -18.161  -0.883  20.501  0.00  0.00    +0.367 C 
ATOM     19  OD2 ASP A   3     -17.355  -0.614  21.459  0.00  0.00    -0.246 OA
ATOM     20  OD1 ASP A   3     -19.101  -0.137  20.210  0.00  0.00    -0.246 OA
ENDBRANCH  17  18
ENDBRANCH   5  17
ENDBRANCH   3   5
BRANCH   1  21
ATOM     21  CA  LEU A   2     -19.476  -6.263  18.588  0.00  0.00    +0.149 C 
BRANCH  21  23
ATOM     22  C   LEU A   1     -17.736  -7.458  19.824  0.00  0.00    +0.238 C 
ATOM     23  N   LEU A   2     -19.010  -7.124  19.670  0.00  0.00    -0.297 N 
ATOM     24  H   LEU A   2     -19.707  -7.491  20.349  0.00  0.00    +0.150 HD
ATOM     25  O   LEU A   1     -16.847  -7.126  19.050  0.00  0.00    -0.274 OA
BRANCH  22  26
ATOM     26  CA  LEU A   1     -17.419  -8.345  21.015  0.00  0.00    +0.145 C 
BRANCH  26  27
ATOM     27  N   LEU A   1     -16.871  -9.636  20.568  0.00  0.00    -0.238 NA
ATOM     28  H   LEU A   1     -15.895  -9.683  20.211  0.00  0.00    +0.142 HD
ENDBRANCH  26  27
BRANCH  26  29
ATOM     29  CB  LEU A   1     -16.374  -7.642  21.911  0.00  0.00    +0.026 C 
BRANCH  29  30
ATOM     30  CG  LEU A   1     -16.755  -6.219  22.302  0.00  0.00    +0.002 C 
ATOM     31  CD2 LEU A   1     -18.043  -6.256  23.160  0.00  0.00    +0.000 C 
ATOM     32  CD1 LEU A   1     -15.626  -5.545  23.114  0.00  0.00    +0.000 C 
ENDBRANCH  29  30
ENDBRANCH  26  29
ENDBRANCH  22  26
ENDBRANCH  21  23
BRANCH  21  33
ATOM     33  CB  LEU A   2     -20.896  -6.658  18.150  0.00  0.00    +0.029 C 
BRANCH  33  34
ATOM     34  CG  LEU A   2     -21.120  -8.030  17.469  0.00  0.00    +0.002 C 
ATOM     35  CD2 LEU A   2     -20.755  -9.200  18.332  0.00  0.00    +0.000 C 
ATOM     36  CD1 LEU A   2     -22.635  -8.087  17.153  0.00  0.00    +0.000 C 
ENDBRANCH  33  34
ENDBRANCH  21  33
ENDBRANCH   1  21
TORSDOF 16
REMARK  Name = ../refined-set-2016/2afx/2afx_pocket.pdb
REMARK  128 active torsions:
REMARK  status: ('A' for Active; 'I' for Inactive)
REMARK    1  A    between atoms: _1  and  _3
REMARK    2  A    between atoms: _3  and  _4
REMARK    3  A    between atoms: _3  and  _6
REMARK    4  A    between atoms: _6  and  _7
REMARK    5  A    between atoms: _12  and  _14
REMARK    6  A    between atoms: _14  and  _15
REMARK    7  A    between atoms: _14  and  _17
REMARK    8  A    between atoms: _17  and  _18
REMARK    9  A    between atoms: _18  and  _19
REMARK   10  A    between atoms: _19  and  _20
REMARK   11  A    between atoms: _20  and  _21
REMARK   12  A    between atoms: _25  and  _27
REMARK   13  A    between atoms: _27  and  _28
REMARK   14  A    between atoms: _27  and  _30
REMARK   15  A    between atoms: _30  and  _31
REMARK   16  A    between atoms: _37  and  _39
REMARK   17  A    between atoms: _39  and  _40
REMARK   18  A    between atoms: _39  and  _42
REMARK   19  A    between atoms: _42  and  _43
REMARK   20  A    between atoms: _46  and  _48
REMARK   21  A    between atoms: _48  and  _49
REMARK   22  A    between atoms: _48  and  _51
REMARK   23  A    between atoms: _51  and  _52
REMARK   24  A    between atoms: _52  and  _54
REMARK   25  A    between atoms: _54  and  ZN_303
REMARK   26  A    between atoms: _55  and  _57
REMARK   27  A    between atoms: _57  and  _58
REMARK   28  A    between atoms: _57  and  _60
REMARK   29  A    between atoms: _60  and  _61
REMARK   30  A    between atoms: _63  and  _65
REMARK   31  A    between atoms: _65  and  _66
REMARK   32  A    between atoms: _65  and  _68
REMARK   33  A    between atoms: _68  and  _69
REMARK   34  A    between atoms: _69  and  _70
REMARK   35  A    between atoms: _73  and  _75
REMARK   36  A    between atoms: _75  and  _76
REMARK   37  A    between atoms: _75  and  _78
REMARK   38  A    between atoms: _78  and  _79
REMARK   39  A    between atoms: _79  and  _80
REMARK   40  A    between atoms: _80  and  _82
REMARK   41  A    between atoms: _82  and  ZN_303
REMARK   42  A    between atoms: _83  and  _85
REMARK   43  A    between atoms: _85  and  _86
REMARK   44  A    between atoms: _89  and  _91
REMARK   45  A    between atoms: _91  and  _92
REMARK   46  A    between atoms: _91  and  _94
REMARK   47  A    between atoms: _94  and  _95
REMARK   48  A    between atoms: _100  and  _102
REMARK   49  A    between atoms: _102  and  _103
REMARK   50  A    between atoms: _102  and  _105
REMARK   51  A    between atoms: _105  and  _106
REMARK   52  A    between atoms: _116  and  _118
REMARK   53  A    between atoms: _118  and  _119
REMARK   54  A    between atoms: _118  and  _121
REMARK   55  A    between atoms: _121  and  _122
REMARK   56  A    between atoms: _124  and  _126
REMARK   57  A    between atoms: _126  and  _127
REMARK   58  A    between atoms: _126  and  _129
REMARK   59  A    between atoms: _129  and  _130
REMARK   60  A    between atoms: _132  and  _134
REMARK   61  A    between atoms: _134  and  _135
REMARK   62  A    between atoms: _134  and  _137
REMARK   63  A    between atoms: _137  and  _138
REMARK   64  A    between atoms: _141  and  _143
REMARK   65  A    between atoms: _143  and  _144
REMARK   66  A    between atoms: _143  and  _146
REMARK   67  A    between atoms: _146  and  _147
REMARK   68  A    between atoms: _150  and  _152
REMARK   69  A    between atoms: _152  and  _153
REMARK   70  A    between atoms: _152  and  _155
REMARK   71  A    between atoms: _155  and  _156
REMARK   72  A    between atoms: _159  and  _161
REMARK   73  A    between atoms: _161  and  _162
REMARK   74  A    between atoms: _161  and  _164
REMARK   75  A    between atoms: _164  and  _165
REMARK   76  A    between atoms: _168  and  _170
REMARK   77  A    between atoms: _170  and  _171
REMARK   78  A    between atoms: _170  and  _173
REMARK   79  A    between atoms: _173  and  _174
REMARK   80  A    between atoms: _177  and  _179
REMARK   81  A    between atoms: _179  and  _180
REMARK   82  A    between atoms: _179  and  _182
REMARK   83  A    between atoms: _185  and  _187
REMARK   84  A    between atoms: _187  and  _188
REMARK   85  A    between atoms: _187  and  _190
REMARK   86  A    between atoms: _190  and  _191
REMARK   87  A    between atoms: _194  and  _196
REMARK   88  A    between atoms: _196  and  _197
REMARK   89  A    between atoms: _196  and  _199
REMARK   90  A    between atoms: _199  and  _200
REMARK   91  A    between atoms: _200  and  _201
REMARK   92  A    between atoms: _206  and  _208
REMARK   93  A    between atoms: _208  and  _209
REMARK   94  A    between atoms: _208  and  _211
REMARK   95  A    between atoms: _211  and  _212
REMARK   96  A    between atoms: _215  and  _217
REMARK   97  A    between atoms: _217  and  _218
REMARK   98  A    between atoms: _217  and  _220
REMARK   99  A    between atoms: _220  and  _221
REMARK  100  A    between atoms: _224  and  _226
REMARK  101  A    between atoms: _226  and  _227
REMARK  102  A    between atoms: _226  and  _229
REMARK  103  A    between atoms: _229  and  _230
REMARK  104  A    between atoms: _235  and  _237
REMARK  105  A    between atoms: _237  and  _238
REMARK  106  A    between atoms: _237  and  _240
REMARK  107  A    between atoms: _240  and  _241
REMARK  108  A    between atoms: _246  and  _248
REMARK  109  A    between atoms: _248  and  _249
REMARK  110  A    between atoms: _248  and  _251
REMARK  111  A    between atoms: _251  and  _252
REMARK  112  A    between atoms: _255  and  _257
REMARK  113  A    between atoms: _257  and  _258
REMARK  114  A    between atoms: _257  and  _260
REMARK  115  A    between atoms: _260  and  _261
REMARK  116  A    between atoms: _267  and  _269
REMARK  117  A    between atoms: _269  and  _270
REMARK  118  A    between atoms: _269  and  _272
REMARK  119  A    between atoms: _272  and  _273
REMARK  120  A    between atoms: _283  and  _285
REMARK  121  A    between atoms: _285  and  _286
REMARK  122  A    between atoms: _285  and  _288
REMARK  123  A    between atoms: _288  and  _289
REMARK  124  A    between atoms: _293  and  ZN_303
REMARK  125  A    between atoms: _294  and  _296
REMARK  126  A    between atoms: _296  and  _297
REMARK  127  A    between atoms: _296  and  _299
REMARK  128  A    between atoms: _299  and  _300
REMARK                            x       y       z     vdW  Elec       q    Type
REMARK                         _______ _______ _______ _____ _____    ______ ____
ROOT
ATOM      1  C   GLN A   3     -11.389  -0.090  24.359  0.00  0.00    +0.241 C 
ATOM      2  N   ASP A   4     -11.881  -1.174  24.948  0.00  0.00    -0.297 N 
ATOM      3  H   ASP A   4     -11.239  -1.785  25.492  0.00  0.00    +0.150 HD
ATOM      4  O   GLN A   3     -12.066   0.682  23.687  0.00  0.00    -0.273 OA
ENDROOT
BRANCH   2   5
ATOM      5  CA  ASP A   4     -13.275  -1.532  24.859  0.00  0.00    +0.160 C 
BRANCH   5   6
ATOM      6  C   ASP A   4     -13.529  -2.622  25.917  0.00  0.00    +0.241 C 
ATOM      7  O   ASP A   4     -12.612  -3.026  26.644  0.00  0.00    -0.273 OA
ATOM      8  N   ASP A   5     -14.766  -3.088  25.963  0.00  0.00    -0.297 N 
ATOM      9  H   ASP A   5     -15.462  -2.719  25.284  0.00  0.00    +0.150 HD
BRANCH   8  10
ATOM     10  CA  ASP A   5     -15.201  -4.103  26.930  0.00  0.00    +0.160 C 
BRANCH  10  11
ATOM     11  C   ASP A   5     -14.421  -5.403  26.947  0.00  0.00    +0.241 C 
ATOM     12  O   ASP A   5     -14.486  -6.148  27.948  0.00  0.00    -0.273 OA
ATOM     13  N   HIS A   6     -13.685  -5.697  25.880  0.00  0.00    -0.298 N 
ATOM     14  H   HIS A   6     -13.643  -5.050  25.067  0.00  0.00    +0.150 HD
BRANCH  13  15
ATOM     15  CA  HIS A   6     -12.935  -6.954  25.879  0.00  0.00    +0.143 C 
BRANCH  15  16
ATOM     16  C   HIS A   6     -11.659  -6.866  26.724  0.00  0.00    +0.227 C 
ATOM     17  O   HIS A   6     -11.080  -7.887  27.113  0.00  0.00    -0.286 OA
ENDBRANCH  15  16
BRANCH  15  18
ATOM     18  CB  HIS A   6     -12.510  -7.312  24.453  0.00  0.00    +0.075 C 
BRANCH  18  19
ATOM     19  CG  HIS A   6     -11.568  -6.315  23.868  0.00  0.00    +0.082 A 
ATOM     20  ND1 HIS A   6     -11.899  -4.983  23.744  0.00  0.00    -0.227 NA
ATOM     21  CE1 HIS A   6     -10.842  -4.305  23.324  0.00  0.00    +0.199 A 
ATOM     22  NE2 HIS A   6      -9.839  -5.150  23.171  0.00  0.00    -0.221 NA
ATOM     23  CD2 HIS A   6     -10.270  -6.418  23.492  0.00  0.00    +0.115 A 
ENDBRANCH  18  19
ENDBRANCH  15  18
ENDBRANCH  13  15
ENDBRANCH  10  11
BRANCH  10  24
ATOM     24  CB  ASP A   5     -16.695  -4.418  26.715  0.00  0.00    +0.143 C 
BRANCH  24  25
ATOM     25  CG  ASP A   5     -17.600  -3.297  27.191  0.00  0.00    +0.367 C 
ATOM     26  OD2 ASP A   5     -17.317  -2.708  28.264  0.00  0.00    -0.246 OA
ATOM     27  OD1 ASP A   5     -18.606  -3.019  26.503  0.00  0.00    -0.246 OA
ENDBRANCH  24  25
ENDBRANCH  10  24
ENDBRANCH   8  10
ENDBRANCH   5   6
BRANCH   5  28
ATOM     28  CB  ASP A   4     -13.577  -2.072  23.456  0.00  0.00    +0.143 C 
BRANCH  28  29
ATOM     29  CG  ASP A   4     -15.039  -1.928  23.064  0.00  0.00    +0.367 C 
ATOM     30  OD2 ASP A   4     -15.878  -1.620  23.930  0.00  0.00    -0.246 OA
ATOM     31  OD1 ASP A   4     -15.344  -2.141  21.873  0.00  0.00    -0.246 OA
ENDBRANCH  28  29
ENDBRANCH   5  28
ENDBRANCH   2   5
BRANCH   1  32
ATOM     32  CA  GLN A   3      -9.893   0.154  24.592  0.00  0.00    +0.149 C 
BRANCH  32  34
ATOM     33  C   ILE A   2      -9.070  -0.528  22.415  0.00  0.00    +0.241 C 
ATOM     34  N   GLN A   3      -9.230   0.422  23.325  0.00  0.00    -0.297 N 
ATOM     35  H   GLN A   3      -8.874   1.379  23.129  0.00  0.00    +0.150 HD
ATOM     36  O   ILE A   2      -9.472  -1.683  22.561  0.00  0.00    -0.273 OA
BRANCH  33  37
ATOM     37  CA  ILE A   2      -8.352  -0.145  21.140  0.00  0.00    +0.148 C 
BRANCH  37  40
ATOM     38  C   VAL A   1      -5.937  -0.269  21.324  0.00  0.00    +0.238 C 
ATOM     39  O   VAL A   1      -5.863   0.960  21.506  0.00  0.00    -0.274 OA
ATOM     40  N   ILE A   2      -7.095  -0.896  21.120  0.00  0.00    -0.297 N 
ATOM     41  H   ILE A   2      -7.106  -1.921  20.946  0.00  0.00    +0.150 HD
BRANCH  38  42
ATOM     42  CA  VAL A   1      -4.677  -1.138  21.320  0.00  0.00    +0.145 C 
BRANCH  42  43
ATOM     43  CB  VAL A   1      -4.056  -1.176  22.734  0.00  0.00    +0.025 C 
ATOM     44  CG2 VAL A   1      -4.973  -1.924  23.685  0.00  0.00    +0.002 C 
ATOM     45  CG1 VAL A   1      -2.694  -1.845  22.685  0.00  0.00    +0.002 C 
ENDBRANCH  42  43
BRANCH  42  46
ATOM     46  N   VAL A   1      -3.712  -0.648  20.357  0.00  0.00    -0.238 NA
ATOM     47  H   VAL A   1      -3.211   0.249  20.519  0.00  0.00    +0.142 HD
ENDBRANCH  42  46
ENDBRANCH  38  42
ENDBRANCH  37  40
BRANCH  37  48
ATOM     48  CB  ILE A   2      -9.281  -0.483  19.957  0.00  0.00    +0.027 C 
ATOM     49  CG2 ILE A   2     -10.590   0.301  20.117  0.00  0.00    +0.002 C 
BRANCH  48  50
ATOM     50  CG1 ILE A   2      -8.618  -0.076  18.628  0.00  0.00    +0.002 C 
ATOM     51  CD1 ILE A   2      -9.445  -0.339  17.401  0.00  0.00    +0.000 C 
ENDBRANCH  48  50
ENDBRANCH  37  48
ENDBRANCH  33  37
ENDBRANCH  32  34
BRANCH  32  52
ATOM     52  CB  GLN A   3      -9.705   1.324  25.558  0.00  0.00    +0.039 C 
BRANCH  52  53
ATOM     53  CG  GLN A   3      -8.222   1.624  25.884  0.00  0.00    +0.087 C 
BRANCH  53  54
ATOM     54  CD  GLN A   3      -7.510   0.436  26.536  0.00  0.00    +0.219 C 
ATOM     55  OE1 GLN A   3      -7.924  -0.046  27.588  0.00  0.00    -0.275 OA
ATOM     56  NE2 GLN A   3      -6.436  -0.037  25.909  0.00  0.00    -0.329 N 
ATOM     57 HE21 GLN A   3      -5.914  -0.843  26.308  0.00  0.00    +0.145 HD
ATOM     58 HE22 GLN A   3      -6.118   0.400  25.020  0.00  0.00    +0.145 HD
ENDBRANCH  53  54
ENDBRANCH  52  53
ENDBRANCH  32  52
ENDBRANCH   1  32
TORSDOF 24
REMARK  Name = ../refined-set-2016/2afx/2afx_pocket.pdb
REMARK  128 active torsions:
REMARK  status: ('A' for Active; 'I' for Inactive)
REMARK    1  A    between atoms: _1  and  _3
REMARK    2  A    between atoms: _3  and  _4
REMARK    3  A    between atoms: _3  and  _6
REMARK    4  A    between atoms: _6  and  _7
REMARK    5  A    between atoms: _12  and  _14
REMARK    6  A    between atoms: _14  and  _15
REMARK    7  A    between atoms: _14  and  _17
REMARK    8  A    between atoms: _17  and  _18
REMARK    9  A    between atoms: _18  and  _19
REMARK   10  A    between atoms: _19  and  _20
REMARK   11  A    between atoms: _20  and  _21
REMARK   12  A    between atoms: _25  and  _27
REMARK   13  A    between atoms: _27  and  _28
REMARK   14  A    between atoms: _27  and  _30
REMARK   15  A    between atoms: _30  and  _31
REMARK   16  A    between atoms: _37  and  _39
REMARK   17  A    between atoms: _39  and  _40
REMARK   18  A    between atoms: _39  and  _42
REMARK   19  A    between atoms: _42  and  _43
REMARK   20  A    between atoms: _46  and  _48
REMARK   21  A    between atoms: _48  and  _49
REMARK   22  A    between atoms: _48  and  _51
REMARK   23  A    between atoms: _51  and  _52
REMARK   24  A    between atoms: _52  and  _54
REMARK   25  A    between atoms: _54  and  ZN_303
REMARK   26  A    between atoms: _55  and  _57
REMARK   27  A    between atoms: _57  and  _58
REMARK   28  A    between atoms: _57  and  _60
REMARK   29  A    between atoms: _60  and  _61
REMARK   30  A    between atoms: _63  and  _65
REMARK   31  A    between atoms: _65  and  _66
REMARK   32  A    between atoms: _65  and  _68
REMARK   33  A    between atoms: _68  and  _69
REMARK   34  A    between atoms: _69  and  _70
REMARK   35  A    between atoms: _73  and  _75
REMARK   36  A    between atoms: _75  and  _76
REMARK   37  A    between atoms: _75  and  _78
REMARK   38  A    between atoms: _78  and  _79
REMARK   39  A    between atoms: _79  and  _80
REMARK   40  A    between atoms: _80  and  _82
REMARK   41  A    between atoms: _82  and  ZN_303
REMARK   42  A    between atoms: _83  and  _85
REMARK   43  A    between atoms: _85  and  _86
REMARK   44  A    between atoms: _89  and  _91
REMARK   45  A    between atoms: _91  and  _92
REMARK   46  A    between atoms: _91  and  _94
REMARK   47  A    between atoms: _94  and  _95
REMARK   48  A    between atoms: _100  and  _102
REMARK   49  A    between atoms: _102  and  _103
REMARK   50  A    between atoms: _102  and  _105
REMARK   51  A    between atoms: _105  and  _106
REMARK   52  A    between atoms: _116  and  _118
REMARK   53  A    between atoms: _118  and  _119
REMARK   54  A    between atoms: _118  and  _121
REMARK   55  A    between atoms: _121  and  _122
REMARK   56  A    between atoms: _124  and  _126
REMARK   57  A    between atoms: _126  and  _127
REMARK   58  A    between atoms: _126  and  _129
REMARK   59  A    between atoms: _129  and  _130
REMARK   60  A    between atoms: _132  and  _134
REMARK   61  A    between atoms: _134  and  _135
REMARK   62  A    between atoms: _134  and  _137
REMARK   63  A    between atoms: _137  and  _138
REMARK   64  A    between atoms: _141  and  _143
REMARK   65  A    between atoms: _143  and  _144
REMARK   66  A    between atoms: _143  and  _146
REMARK   67  A    between atoms: _146  and  _147
REMARK   68  A    between atoms: _150  and  _152
REMARK   69  A    between atoms: _152  and  _153
REMARK   70  A    between atoms: _152  and  _155
REMARK   71  A    between atoms: _155  and  _156
REMARK   72  A    between atoms: _159  and  _161
REMARK   73  A    between atoms: _161  and  _162
REMARK   74  A    between atoms: _161  and  _164
REMARK   75  A    between atoms: _164  and  _165
REMARK   76  A    between atoms: _168  and  _170
REMARK   77  A    between atoms: _170  and  _171
REMARK   78  A    between atoms: _170  and  _173
REMARK   79  A    between atoms: _173  and  _174
REMARK   80  A    between atoms: _177  and  _179
REMARK   81  A    between atoms: _179  and  _180
REMARK   82  A    between atoms: _179  and  _182
REMARK   83  A    between atoms: _185  and  _187
REMARK   84  A    between atoms: _187  and  _188
REMARK   85  A    between atoms: _187  and  _190
REMARK   86  A    between atoms: _190  and  _191
REMARK   87  A    between atoms: _194  and  _196
REMARK   88  A    between atoms: _196  and  _197
REMARK   89  A    between atoms: _196  and  _199
REMARK   90  A    between atoms: _199  and  _200
REMARK   91  A    between atoms: _200  and  _201
REMARK   92  A    between atoms: _206  and  _208
REMARK   93  A    between atoms: _208  and  _209
REMARK   94  A    between atoms: _208  and  _211
REMARK   95  A    between atoms: _211  and  _212
REMARK   96  A    between atoms: _215  and  _217
REMARK   97  A    between atoms: _217  and  _218
REMARK   98  A    between atoms: _217  and  _220
REMARK   99  A    between atoms: _220  and  _221
REMARK  100  A    between atoms: _224  and  _226
REMARK  101  A    between atoms: _226  and  _227
REMARK  102  A    between atoms: _226  and  _229
REMARK  103  A    between atoms: _229  and  _230
REMARK  104  A    between atoms: _235  and  _237
REMARK  105  A    between atoms: _237  and  _238
REMARK  106  A    between atoms: _237  and  _240
REMARK  107  A    between atoms: _240  and  _241
REMARK  108  A    between atoms: _246  and  _248
REMARK  109  A    between atoms: _248  and  _249
REMARK  110  A    between atoms: _248  and  _251
REMARK  111  A    between atoms: _251  and  _252
REMARK  112  A    between atoms: _255  and  _257
REMARK  113  A    between atoms: _257  and  _258
REMARK  114  A    between atoms: _257  and  _260
REMARK  115  A    between atoms: _260  and  _261
REMARK  116  A    between atoms: _267  and  _269
REMARK  117  A    between atoms: _269  and  _270
REMARK  118  A    between atoms: _269  and  _272
REMARK  119  A    between atoms: _272  and  _273
REMARK  120  A    between atoms: _283  and  _285
REMARK  121  A    between atoms: _285  and  _286
REMARK  122  A    between atoms: _285  and  _288
REMARK  123  A    between atoms: _288  and  _289
REMARK  124  A    between atoms: _293  and  ZN_303
REMARK  125  A    between atoms: _294  and  _296
REMARK  126  A    between atoms: _296  and  _297
REMARK  127  A    between atoms: _296  and  _299
REMARK  128  A    between atoms: _299  and  _300
REMARK                            x       y       z     vdW  Elec       q    Type
REMARK                         _______ _______ _______ _____ _____    ______ ____
ROOT
ATOM      1  CB  HIS A   1     -11.996  -6.925  19.000  0.00  0.00    +0.072 C 
ENDROOT
BRANCH   1   2
ATOM      2  CG  HIS A   1     -12.512  -5.635  19.575  0.00  0.00    +0.082 A 
ATOM      3  ND1 HIS A   1     -11.667  -4.624  19.998  0.00  0.00    -0.227 NA
ATOM      4  CE1 HIS A   1     -12.387  -3.632  20.502  0.00  0.00    +0.199 A 
ATOM      5  NE2 HIS A   1     -13.670  -3.962  20.419  0.00  0.00    -0.221 NA
ATOM      6  CD2 HIS A   1     -13.774  -5.213  19.846  0.00  0.00    +0.115 A 
ENDBRANCH   1   2
BRANCH   1   7
ATOM      7  CA  HIS A   1     -13.097  -7.857  18.465  0.00  0.00    +0.139 C 
BRANCH   7   8
ATOM      8  N   HIS A   1     -12.558  -9.196  18.272  0.00  0.00    -0.239 NA
ATOM      9  H   HIS A   1     -11.591  -9.306  17.906  0.00  0.00    +0.142 HD
ENDBRANCH   7   8
BRANCH   7  10
ATOM     10  C   HIS A   1     -13.660  -7.331  17.169  0.00  0.00    +0.224 C 
ATOM     11  O   HIS A   1     -12.917  -6.896  16.293  0.00  0.00    -0.287 OA
ENDBRANCH   7  10
ENDBRANCH   1   7
TORSDOF 4
REMARK  Name = ../refined-set-2016/2afx/2afx_pocket.pdb
REMARK  128 active torsions:
REMARK  status: ('A' for Active; 'I' for Inactive)
REMARK    1  A    between atoms: _1  and  _3
REMARK    2  A    between atoms: _3  and  _4
REMARK    3  A    between atoms: _3  and  _6
REMARK    4  A    between atoms: _6  and  _7
REMARK    5  A    between atoms: _12  and  _14
REMARK    6  A    between atoms: _14  and  _15
REMARK    7  A    between atoms: _14  and  _17
REMARK    8  A    between atoms: _17  and  _18
REMARK    9  A    between atoms: _18  and  _19
REMARK   10  A    between atoms: _19  and  _20
REMARK   11  A    between atoms: _20  and  _21
REMARK   12  A    between atoms: _25  and  _27
REMARK   13  A    between atoms: _27  and  _28
REMARK   14  A    between atoms: _27  and  _30
REMARK   15  A    between atoms: _30  and  _31
REMARK   16  A    between atoms: _37  and  _39
REMARK   17  A    between atoms: _39  and  _40
REMARK   18  A    between atoms: _39  and  _42
REMARK   19  A    between atoms: _42  and  _43
REMARK   20  A    between atoms: _46  and  _48
REMARK   21  A    between atoms: _48  and  _49
REMARK   22  A    between atoms: _48  and  _51
REMARK   23  A    between atoms: _51  and  _52
REMARK   24  A    between atoms: _52  and  _54
REMARK   25  A    between atoms: _54  and  ZN_303
REMARK   26  A    between atoms: _55  and  _57
REMARK   27  A    between atoms: _57  and  _58
REMARK   28  A    between atoms: _57  and  _60
REMARK   29  A    between atoms: _60  and  _61
REMARK   30  A    between atoms: _63  and  _65
REMARK   31  A    between atoms: _65  and  _66
REMARK   32  A    between atoms: _65  and  _68
REMARK   33  A    between atoms: _68  and  _69
REMARK   34  A    between atoms: _69  and  _70
REMARK   35  A    between atoms: _73  and  _75
REMARK   36  A    between atoms: _75  and  _76
REMARK   37  A    between atoms: _75  and  _78
REMARK   38  A    between atoms: _78  and  _79
REMARK   39  A    between atoms: _79  and  _80
REMARK   40  A    between atoms: _80  and  _82
REMARK   41  A    between atoms: _82  and  ZN_303
REMARK   42  A    between atoms: _83  and  _85
REMARK   43  A    between atoms: _85  and  _86
REMARK   44  A    between atoms: _89  and  _91
REMARK   45  A    between atoms: _91  and  _92
REMARK   46  A    between atoms: _91  and  _94
REMARK   47  A    between atoms: _94  and  _95
REMARK   48  A    between atoms: _100  and  _102
REMARK   49  A    between atoms: _102  and  _103
REMARK   50  A    between atoms: _102  and  _105
REMARK   51  A    between atoms: _105  and  _106
REMARK   52  A    between atoms: _116  and  _118
REMARK   53  A    between atoms: _118  and  _119
REMARK   54  A    between atoms: _118  and  _121
REMARK   55  A    between atoms: _121  and  _122
REMARK   56  A    between atoms: _124  and  _126
REMARK   57  A    between atoms: _126  and  _127
REMARK   58  A    between atoms: _126  and  _129
REMARK   59  A    between atoms: _129  and  _130
REMARK   60  A    between atoms: _132  and  _134
REMARK   61  A    between atoms: _134  and  _135
REMARK   62  A    between atoms: _134  and  _137
REMARK   63  A    between atoms: _137  and  _138
REMARK   64  A    between atoms: _141  and  _143
REMARK   65  A    between atoms: _143  and  _144
REMARK   66  A    between atoms: _143  and  _146
REMARK   67  A    between atoms: _146  and  _147
REMARK   68  A    between atoms: _150  and  _152
REMARK   69  A    between atoms: _152  and  _153
REMARK   70  A    between atoms: _152  and  _155
REMARK   71  A    between atoms: _155  and  _156
REMARK   72  A    between atoms: _159  and  _161
REMARK   73  A    between atoms: _161  and  _162
REMARK   74  A    between atoms: _161  and  _164
REMARK   75  A    between atoms: _164  and  _165
REMARK   76  A    between atoms: _168  and  _170
REMARK   77  A    between atoms: _170  and  _171
REMARK   78  A    between atoms: _170  and  _173
REMARK   79  A    between atoms: _173  and  _174
REMARK   80  A    between atoms: _177  and  _179
REMARK   81  A    between atoms: _179  and  _180
REMARK   82  A    between atoms: _179  and  _182
REMARK   83  A    between atoms: _185  and  _187
REMARK   84  A    between atoms: _187  and  _188
REMARK   85  A    between atoms: _187  and  _190
REMARK   86  A    between atoms: _190  and  _191
REMARK   87  A    between atoms: _194  and  _196
REMARK   88  A    between atoms: _196  and  _197
REMARK   89  A    between atoms: _196  and  _199
REMARK   90  A    between atoms: _199  and  _200
REMARK   91  A    between atoms: _200  and  _201
REMARK   92  A    between atoms: _206  and  _208
REMARK   93  A    between atoms: _208  and  _209
REMARK   94  A    between atoms: _208  and  _211
REMARK   95  A    between atoms: _211  and  _212
REMARK   96  A    between atoms: _215  and  _217
REMARK   97  A    between atoms: _217  and  _218
REMARK   98  A    between atoms: _217  and  _220
REMARK   99  A    between atoms: _220  and  _221
REMARK  100  A    between atoms: _224  and  _226
REMARK  101  A    between atoms: _226  and  _227
REMARK  102  A    between atoms: _226  and  _229
REMARK  103  A    between atoms: _229  and  _230
REMARK  104  A    between atoms: _235  and  _237
REMARK  105  A    between atoms: _237  and  _238
REMARK  106  A    between atoms: _237  and  _240
REMARK  107  A    between atoms: _240  and  _241
REMARK  108  A    between atoms: _246  and  _248
REMARK  109  A    between atoms: _248  and  _249
REMARK  110  A    between atoms: _248  and  _251
REMARK  111  A    between atoms: _251  and  _252
REMARK  112  A    between atoms: _255  and  _257
REMARK  113  A    between atoms: _257  and  _258
REMARK  114  A    between atoms: _257  and  _260
REMARK  115  A    between atoms: _260  and  _261
REMARK  116  A    between atoms: _267  and  _269
REMARK  117  A    between atoms: _269  and  _270
REMARK  118  A    between atoms: _269  and  _272
REMARK  119  A    between atoms: _272  and  _273
REMARK  120  A    between atoms: _283  and  _285
REMARK  121  A    between atoms: _285  and  _286
REMARK  122  A    between atoms: _285  and  _288
REMARK  123  A    between atoms: _288  and  _289
REMARK  124  A    between atoms: _293  and  ZN_303
REMARK  125  A    between atoms: _294  and  _296
REMARK  126  A    between atoms: _296  and  _297
REMARK  127  A    between atoms: _296  and  _299
REMARK  128  A    between atoms: _299  and  _300
REMARK                            x       y       z     vdW  Elec       q    Type
REMARK                         _______ _______ _______ _____ _____    ______ ____
ROOT
ATOM      1  CA  ILE A   1     -15.079  -3.188  15.858  0.00  0.00    +0.133 C 
ENDROOT
BRANCH   1   2
ATOM      2  N   ILE A   1     -14.942  -4.654  15.838  0.00  0.00    -0.239 NA
ATOM      3  H   ILE A   1     -13.993  -5.068  15.736  0.00  0.00    +0.142 HD
ENDBRANCH   1   2
BRANCH   1   4
ATOM      4  CB  ILE A   1     -14.443  -2.576  17.140  0.00  0.00    +0.023 C 
ATOM      5  CG2 ILE A   1     -12.927  -2.804  17.129  0.00  0.00    +0.002 C 
BRANCH   4   6
ATOM      6  CG1 ILE A   1     -14.822  -1.067  17.241  0.00  0.00    +0.002 C 
ATOM      7  CD1 ILE A   1     -14.372  -0.358  18.579  0.00  0.00    +0.000 C 
ENDBRANCH   4   6
ENDBRANCH   1   4
BRANCH   1   8
ATOM      8  C   ILE A   1     -14.324  -2.766  14.614  0.00  0.00    +0.224 C 
ATOM      9  O   ILE A   1     -13.243  -3.297  14.321  0.00  0.00    -0.287 OA
ENDBRANCH   1   8
TORSDOF 4
REMARK  Name = ../refined-set-2016/2afx/2afx_pocket.pdb
REMARK  128 active torsions:
REMARK  status: ('A' for Active; 'I' for Inactive)
REMARK    1  A    between atoms: _1  and  _3
REMARK    2  A    between atoms: _3  and  _4
REMARK    3  A    between atoms: _3  and  _6
REMARK    4  A    between atoms: _6  and  _7
REMARK    5  A    between atoms: _12  and  _14
REMARK    6  A    between atoms: _14  and  _15
REMARK    7  A    between atoms: _14  and  _17
REMARK    8  A    between atoms: _17  and  _18
REMARK    9  A    between atoms: _18  and  _19
REMARK   10  A    between atoms: _19  and  _20
REMARK   11  A    between atoms: _20  and  _21
REMARK   12  A    between atoms: _25  and  _27
REMARK   13  A    between atoms: _27  and  _28
REMARK   14  A    between atoms: _27  and  _30
REMARK   15  A    between atoms: _30  and  _31
REMARK   16  A    between atoms: _37  and  _39
REMARK   17  A    between atoms: _39  and  _40
REMARK   18  A    between atoms: _39  and  _42
REMARK   19  A    between atoms: _42  and  _43
REMARK   20  A    between atoms: _46  and  _48
REMARK   21  A    between atoms: _48  and  _49
REMARK   22  A    between atoms: _48  and  _51
REMARK   23  A    between atoms: _51  and  _52
REMARK   24  A    between atoms: _52  and  _54
REMARK   25  A    between atoms: _54  and  ZN_303
REMARK   26  A    between atoms: _55  and  _57
REMARK   27  A    between atoms: _57  and  _58
REMARK   28  A    between atoms: _57  and  _60
REMARK   29  A    between atoms: _60  and  _61
REMARK   30  A    between atoms: _63  and  _65
REMARK   31  A    between atoms: _65  and  _66
REMARK   32  A    between atoms: _65  and  _68
REMARK   33  A    between atoms: _68  and  _69
REMARK   34  A    between atoms: _69  and  _70
REMARK   35  A    between atoms: _73  and  _75
REMARK   36  A    between atoms: _75  and  _76
REMARK   37  A    between atoms: _75  and  _78
REMARK   38  A    between atoms: _78  and  _79
REMARK   39  A    between atoms: _79  and  _80
REMARK   40  A    between atoms: _80  and  _82
REMARK   41  A    between atoms: _82  and  ZN_303
REMARK   42  A    between atoms: _83  and  _85
REMARK   43  A    between atoms: _85  and  _86
REMARK   44  A    between atoms: _89  and  _91
REMARK   45  A    between atoms: _91  and  _92
REMARK   46  A    between atoms: _91  and  _94
REMARK   47  A    between atoms: _94  and  _95
REMARK   48  A    between atoms: _100  and  _102
REMARK   49  A    between atoms: _102  and  _103
REMARK   50  A    between atoms: _102  and  _105
REMARK   51  A    between atoms: _105  and  _106
REMARK   52  A    between atoms: _116  and  _118
REMARK   53  A    between atoms: _118  and  _119
REMARK   54  A    between atoms: _118  and  _121
REMARK   55  A    between atoms: _121  and  _122
REMARK   56  A    between atoms: _124  and  _126
REMARK   57  A    between atoms: _126  and  _127
REMARK   58  A    between atoms: _126  and  _129
REMARK   59  A    between atoms: _129  and  _130
REMARK   60  A    between atoms: _132  and  _134
REMARK   61  A    between atoms: _134  and  _135
REMARK   62  A    between atoms: _134  and  _137
REMARK   63  A    between atoms: _137  and  _138
REMARK   64  A    between atoms: _141  and  _143
REMARK   65  A    between atoms: _143  and  _144
REMARK   66  A    between atoms: _143  and  _146
REMARK   67  A    between atoms: _146  and  _147
REMARK   68  A    between atoms: _150  and  _152
REMARK   69  A    between atoms: _152  and  _153
REMARK   70  A    between atoms: _152  and  _155
REMARK   71  A    between atoms: _155  and  _156
REMARK   72  A    between atoms: _159  and  _161
REMARK   73  A    between atoms: _161  and  _162
REMARK   74  A    between atoms: _161  and  _164
REMARK   75  A    between atoms: _164  and  _165
REMARK   76  A    between atoms: _168  and  _170
REMARK   77  A    between atoms: _170  and  _171
REMARK   78  A    between atoms: _170  and  _173
REMARK   79  A    between atoms: _173  and  _174
REMARK   80  A    between atoms: _177  and  _179
REMARK   81  A    between atoms: _179  and  _180
REMARK   82  A    between atoms: _179  and  _182
REMARK   83  A    between atoms: _185  and  _187
REMARK   84  A    between atoms: _187  and  _188
REMARK   85  A    between atoms: _187  and  _190
REMARK   86  A    between atoms: _190  and  _191
REMARK   87  A    between atoms: _194  and  _196
REMARK   88  A    between atoms: _196  and  _197
REMARK   89  A    between atoms: _196  and  _199
REMARK   90  A    between atoms: _199  and  _200
REMARK   91  A    between atoms: _200  and  _201
REMARK   92  A    between atoms: _206  and  _208
REMARK   93  A    between atoms: _208  and  _209
REMARK   94  A    between atoms: _208  and  _211
REMARK   95  A    between atoms: _211  and  _212
REMARK   96  A    between atoms: _215  and  _217
REMARK   97  A    between atoms: _217  and  _218
REMARK   98  A    between atoms: _217  and  _220
REMARK   99  A    between atoms: _220  and  _221
REMARK  100  A    between atoms: _224  and  _226
REMARK  101  A    between atoms: _226  and  _227
REMARK  102  A    between atoms: _226  and  _229
REMARK  103  A    between atoms: _229  and  _230
REMARK  104  A    between atoms: _235  and  _237
REMARK  105  A    between atoms: _237  and  _238
REMARK  106  A    between atoms: _237  and  _240
REMARK  107  A    between atoms: _240  and  _241
REMARK  108  A    between atoms: _246  and  _248
REMARK  109  A    between atoms: _248  and  _249
REMARK  110  A    between atoms: _248  and  _251
REMARK  111  A    between atoms: _251  and  _252
REMARK  112  A    between atoms: _255  and  _257
REMARK  113  A    between atoms: _257  and  _258
REMARK  114  A    between atoms: _257  and  _260
REMARK  115  A    between atoms: _260  and  _261
REMARK  116  A    between atoms: _267  and  _269
REMARK  117  A    between atoms: _269  and  _270
REMARK  118  A    between atoms: _269  and  _272
REMARK  119  A    between atoms: _272  and  _273
REMARK  120  A    between atoms: _283  and  _285
REMARK  121  A    between atoms: _285  and  _286
REMARK  122  A    between atoms: _285  and  _288
REMARK  123  A    between atoms: _288  and  _289
REMARK  124  A    between atoms: _293  and  ZN_303
REMARK  125  A    between atoms: _294  and  _296
REMARK  126  A    between atoms: _296  and  _297
REMARK  127  A    between atoms: _296  and  _299
REMARK  128  A    between atoms: _299  and  _300
REMARK                            x       y       z     vdW  Elec       q    Type
REMARK                         _______ _______ _______ _____ _____    ______ ____
ROOT
ATOM      1  CB  PHE A   1     -14.625   4.888  14.651  0.00  0.00    +0.051 C 
ENDROOT
BRANCH   1   2
ATOM      2  CG  PHE A   1     -13.812   4.309  15.776  0.00  0.00    -0.020 A 
ATOM      3  CD2 PHE A   1     -13.603   5.084  16.938  0.00  0.00    -0.004 A 
ATOM      4  CE2 PHE A   1     -12.956   4.561  18.033  0.00  0.00    -0.000 A 
ATOM      5  CZ  PHE A   1     -12.485   3.250  18.011  0.00  0.00    -0.000 A 
ATOM      6  CE1 PHE A   1     -12.673   2.464  16.867  0.00  0.00    -0.000 A 
ATOM      7  CD1 PHE A   1     -13.338   2.997  15.758  0.00  0.00    -0.004 A 
ENDBRANCH   1   2
BRANCH   1   8
ATOM      8  CA  PHE A   1     -14.603   4.088  13.334  0.00  0.00    +0.137 C 
BRANCH   8   9
ATOM      9  N   PHE A   1     -13.260   4.079  12.772  0.00  0.00    -0.239 NA
ATOM     10  H   PHE A   1     -12.516   4.676  13.187  0.00  0.00    +0.142 HD
ENDBRANCH   8   9
BRANCH   8  11
ATOM     11  C   PHE A   1     -15.562   4.835  12.384  0.00  0.00    +0.224 C 
ATOM     12  O   PHE A   1     -15.132   5.574  11.490  0.00  0.00    -0.287 OA
ENDBRANCH   8  11
ENDBRANCH   1   8
TORSDOF 4
REMARK  Name = ../refined-set-2016/2afx/2afx_pocket.pdb
REMARK  128 active torsions:
REMARK  status: ('A' for Active; 'I' for Inactive)
REMARK    1  A    between atoms: _1  and  _3
REMARK    2  A    between atoms: _3  and  _4
REMARK    3  A    between atoms: _3  and  _6
REMARK    4  A    between atoms: _6  and  _7
REMARK    5  A    between atoms: _12  and  _14
REMARK    6  A    between atoms: _14  and  _15
REMARK    7  A    between atoms: _14  and  _17
REMARK    8  A    between atoms: _17  and  _18
REMARK    9  A    between atoms: _18  and  _19
REMARK   10  A    between atoms: _19  and  _20
REMARK   11  A    between atoms: _20  and  _21
REMARK   12  A    between atoms: _25  and  _27
REMARK   13  A    between atoms: _27  and  _28
REMARK   14  A    between atoms: _27  and  _30
REMARK   15  A    between atoms: _30  and  _31
REMARK   16  A    between atoms: _37  and  _39
REMARK   17  A    between atoms: _39  and  _40
REMARK   18  A    between atoms: _39  and  _42
REMARK   19  A    between atoms: _42  and  _43
REMARK   20  A    between atoms: _46  and  _48
REMARK   21  A    between atoms: _48  and  _49
REMARK   22  A    between atoms: _48  and  _51
REMARK   23  A    between atoms: _51  and  _52
REMARK   24  A    between atoms: _52  and  _54
REMARK   25  A    between atoms: _54  and  ZN_303
REMARK   26  A    between atoms: _55  and  _57
REMARK   27  A    between atoms: _57  and  _58
REMARK   28  A    between atoms: _57  and  _60
REMARK   29  A    between atoms: _60  and  _61
REMARK   30  A    between atoms: _63  and  _65
REMARK   31  A    between atoms: _65  and  _66
REMARK   32  A    between atoms: _65  and  _68
REMARK   33  A    between atoms: _68  and  _69
REMARK   34  A    between atoms: _69  and  _70
REMARK   35  A    between atoms: _73  and  _75
REMARK   36  A    between atoms: _75  and  _76
REMARK   37  A    between atoms: _75  and  _78
REMARK   38  A    between atoms: _78  and  _79
REMARK   39  A    between atoms: _79  and  _80
REMARK   40  A    between atoms: _80  and  _82
REMARK   41  A    between atoms: _82  and  ZN_303
REMARK   42  A    between atoms: _83  and  _85
REMARK   43  A    between atoms: _85  and  _86
REMARK   44  A    between atoms: _89  and  _91
REMARK   45  A    between atoms: _91  and  _92
REMARK   46  A    between atoms: _91  and  _94
REMARK   47  A    between atoms: _94  and  _95
REMARK   48  A    between atoms: _100  and  _102
REMARK   49  A    between atoms: _102  and  _103
REMARK   50  A    between atoms: _102  and  _105
REMARK   51  A    between atoms: _105  and  _106
REMARK   52  A    between atoms: _116  and  _118
REMARK   53  A    between atoms: _118  and  _119
REMARK   54  A    between atoms: _118  and  _121
REMARK   55  A    between atoms: _121  and  _122
REMARK   56  A    between atoms: _124  and  _126
REMARK   57  A    between atoms: _126  and  _127
REMARK   58  A    between atoms: _126  and  _129
REMARK   59  A    between atoms: _129  and  _130
REMARK   60  A    between atoms: _132  and  _134
REMARK   61  A    between atoms: _134  and  _135
REMARK   62  A    between atoms: _134  and  _137
REMARK   63  A    between atoms: _137  and  _138
REMARK   64  A    between atoms: _141  and  _143
REMARK   65  A    between atoms: _143  and  _144
REMARK   66  A    between atoms: _143  and  _146
REMARK   67  A    between atoms: _146  and  _147
REMARK   68  A    between atoms: _150  and  _152
REMARK   69  A    between atoms: _152  and  _153
REMARK   70  A    between atoms: _152  and  _155
REMARK   71  A    between atoms: _155  and  _156
REMARK   72  A    between atoms: _159  and  _161
REMARK   73  A    between atoms: _161  and  _162
REMARK   74  A    between atoms: _161  and  _164
REMARK   75  A    between atoms: _164  and  _165
REMARK   76  A    between atoms: _168  and  _170
REMARK   77  A    between atoms: _170  and  _171
REMARK   78  A    between atoms: _170  and  _173
REMARK   79  A    between atoms: _173  and  _174
REMARK   80  A    between atoms: _177  and  _179
REMARK   81  A    between atoms: _179  and  _180
REMARK   82  A    between atoms: _179  and  _182
REMARK   83  A    between atoms: _185  and  _187
REMARK   84  A    between atoms: _187  and  _188
REMARK   85  A    between atoms: _187  and  _190
REMARK   86  A    between atoms: _190  and  _191
REMARK   87  A    between atoms: _194  and  _196
REMARK   88  A    between atoms: _196  and  _197
REMARK   89  A    between atoms: _196  and  _199
REMARK   90  A    between atoms: _199  and  _200
REMARK   91  A    between atoms: _200  and  _201
REMARK   92  A    between atoms: _206  and  _208
REMARK   93  A    between atoms: _208  and  _209
REMARK   94  A    between atoms: _208  and  _211
REMARK   95  A    between atoms: _211  and  _212
REMARK   96  A    between atoms: _215  and  _217
REMARK   97  A    between atoms: _217  and  _218
REMARK   98  A    between atoms: _217  and  _220
REMARK   99  A    between atoms: _220  and  _221
REMARK  100  A    between atoms: _224  and  _226
REMARK  101  A    between atoms: _226  and  _227
REMARK  102  A    between atoms: _226  and  _229
REMARK  103  A    between atoms: _229  and  _230
REMARK  104  A    between atoms: _235  and  _237
REMARK  105  A    between atoms: _237  and  _238
REMARK  106  A    between atoms: _237  and  _240
REMARK  107  A    between atoms: _240  and  _241
REMARK  108  A    between atoms: _246  and  _248
REMARK  109  A    between atoms: _248  and  _249
REMARK  110  A    between atoms: _248  and  _251
REMARK  111  A    between atoms: _251  and  _252
REMARK  112  A    between atoms: _255  and  _257
REMARK  113  A    between atoms: _257  and  _258
REMARK  114  A    between atoms: _257  and  _260
REMARK  115  A    between atoms: _260  and  _261
REMARK  116  A    between atoms: _267  and  _269
REMARK  117  A    between atoms: _269  and  _270
REMARK  118  A    between atoms: _269  and  _272
REMARK  119  A    between atoms: _272  and  _273
REMARK  120  A    between atoms: _283  and  _285
REMARK  121  A    between atoms: _285  and  _286
REMARK  122  A    between atoms: _285  and  _288
REMARK  123  A    between atoms: _288  and  _289
REMARK  124  A    between atoms: _293  and  ZN_303
REMARK  125  A    between atoms: _294  and  _296
REMARK  126  A    between atoms: _296  and  _297
REMARK  127  A    between atoms: _296  and  _299
REMARK  128  A    between atoms: _299  and  _300
REMARK                            x       y       z     vdW  Elec       q    Type
REMARK                         _______ _______ _______ _____ _____    ______ ____
ROOT
ATOM      1  CA  ASP A   1     -24.764   8.559  15.163  0.00  0.00    +0.144 C 
ENDROOT
BRANCH   1   2
ATOM      2  N   ASP A   1     -24.840  10.029  15.091  0.00  0.00    -0.239 NA
ATOM      3  H   ASP A   1     -24.597  10.614  15.916  0.00  0.00    +0.142 HD
ENDBRANCH   1   2
BRANCH   1   4
ATOM      4  C   ASP A   1     -26.200   8.151  15.453  0.00  0.00    +0.225 C 
ATOM      5  O   ASP A   1     -26.575   7.827  16.593  0.00  0.00    -0.287 OA
ENDBRANCH   1   4
BRANCH   1   6
ATOM      6  CB  ASP A   1     -23.836   8.083  16.278  0.00  0.00    +0.139 C 
BRANCH   6   7
ATOM      7  CG  ASP A   1     -23.725   6.560  16.298  0.00  0.00    +0.367 C 
ATOM      8  OD2 ASP A   1     -23.057   6.020  17.211  0.00  0.00    -0.246 OA
ATOM      9  OD1 ASP A   1     -24.322   5.934  15.391  0.00  0.00    -0.246 OA
ENDBRANCH   6   7
ENDBRANCH   1   6
TORSDOF 4
REMARK  Name = ../refined-set-2016/2afx/2afx_pocket.pdb
REMARK  128 active torsions:
REMARK  status: ('A' for Active; 'I' for Inactive)
REMARK    1  A    between atoms: _1  and  _3
REMARK    2  A    between atoms: _3  and  _4
REMARK    3  A    between atoms: _3  and  _6
REMARK    4  A    between atoms: _6  and  _7
REMARK    5  A    between atoms: _12  and  _14
REMARK    6  A    between atoms: _14  and  _15
REMARK    7  A    between atoms: _14  and  _17
REMARK    8  A    between atoms: _17  and  _18
REMARK    9  A    between atoms: _18  and  _19
REMARK   10  A    between atoms: _19  and  _20
REMARK   11  A    between atoms: _20  and  _21
REMARK   12  A    between atoms: _25  and  _27
REMARK   13  A    between atoms: _27  and  _28
REMARK   14  A    between atoms: _27  and  _30
REMARK   15  A    between atoms: _30  and  _31
REMARK   16  A    between atoms: _37  and  _39
REMARK   17  A    between atoms: _39  and  _40
REMARK   18  A    between atoms: _39  and  _42
REMARK   19  A    between atoms: _42  and  _43
REMARK   20  A    between atoms: _46  and  _48
REMARK   21  A    between atoms: _48  and  _49
REMARK   22  A    between atoms: _48  and  _51
REMARK   23  A    between atoms: _51  and  _52
REMARK   24  A    between atoms: _52  and  _54
REMARK   25  A    between atoms: _54  and  ZN_303
REMARK   26  A    between atoms: _55  and  _57
REMARK   27  A    between atoms: _57  and  _58
REMARK   28  A    between atoms: _57  and  _60
REMARK   29  A    between atoms: _60  and  _61
REMARK   30  A    between atoms: _63  and  _65
REMARK   31  A    between atoms: _65  and  _66
REMARK   32  A    between atoms: _65  and  _68
REMARK   33  A    between atoms: _68  and  _69
REMARK   34  A    between atoms: _69  and  _70
REMARK   35  A    between atoms: _73  and  _75
REMARK   36  A    between atoms: _75  and  _76
REMARK   37  A    between atoms: _75  and  _78
REMARK   38  A    between atoms: _78  and  _79
REMARK   39  A    between atoms: _79  and  _80
REMARK   40  A    between atoms: _80  and  _82
REMARK   41  A    between atoms: _82  and  ZN_303
REMARK   42  A    between atoms: _83  and  _85
REMARK   43  A    between atoms: _85  and  _86
REMARK   44  A    between atoms: _89  and  _91
REMARK   45  A    between atoms: _91  and  _92
REMARK   46  A    between atoms: _91  and  _94
REMARK   47  A    between atoms: _94  and  _95
REMARK   48  A    between atoms: _100  and  _102
REMARK   49  A    between atoms: _102  and  _103
REMARK   50  A    between atoms: _102  and  _105
REMARK   51  A    between atoms: _105  and  _106
REMARK   52  A    between atoms: _116  and  _118
REMARK   53  A    between atoms: _118  and  _119
REMARK   54  A    between atoms: _118  and  _121
REMARK   55  A    between atoms: _121  and  _122
REMARK   56  A    between atoms: _124  and  _126
REMARK   57  A    between atoms: _126  and  _127
REMARK   58  A    between atoms: _126  and  _129
REMARK   59  A    between atoms: _129  and  _130
REMARK   60  A    between atoms: _132  and  _134
REMARK   61  A    between atoms: _134  and  _135
REMARK   62  A    between atoms: _134  and  _137
REMARK   63  A    between atoms: _137  and  _138
REMARK   64  A    between atoms: _141  and  _143
REMARK   65  A    between atoms: _143  and  _144
REMARK   66  A    between atoms: _143  and  _146
REMARK   67  A    between atoms: _146  and  _147
REMARK   68  A    between atoms: _150  and  _152
REMARK   69  A    between atoms: _152  and  _153
REMARK   70  A    between atoms: _152  and  _155
REMARK   71  A    between atoms: _155  and  _156
REMARK   72  A    between atoms: _159  and  _161
REMARK   73  A    between atoms: _161  and  _162
REMARK   74  A    between atoms: _161  and  _164
REMARK   75  A    between atoms: _164  and  _165
REMARK   76  A    between atoms: _168  and  _170
REMARK   77  A    between atoms: _170  and  _171
REMARK   78  A    between atoms: _170  and  _173
REMARK   79  A    between atoms: _173  and  _174
REMARK   80  A    between atoms: _177  and  _179
REMARK   81  A    between atoms: _179  and  _180
REMARK   82  A    between atoms: _179  and  _182
REMARK   83  A    between atoms: _185  and  _187
REMARK   84  A    between atoms: _187  and  _188
REMARK   85  A    between atoms: _187  and  _190
REMARK   86  A    between atoms: _190  and  _191
REMARK   87  A    between atoms: _194  and  _196
REMARK   88  A    between atoms: _196  and  _197
REMARK   89  A    between atoms: _196  and  _199
REMARK   90  A    between atoms: _199  and  _200
REMARK   91  A    between atoms: _200  and  _201
REMARK   92  A    between atoms: _206  and  _208
REMARK   93  A    between atoms: _208  and  _209
REMARK   94  A    between atoms: _208  and  _211
REMARK   95  A    between atoms: _211  and  _212
REMARK   96  A    between atoms: _215  and  _217
REMARK   97  A    between atoms: _217  and  _218
REMARK   98  A    between atoms: _217  and  _220
REMARK   99  A    between atoms: _220  and  _221
REMARK  100  A    between atoms: _224  and  _226
REMARK  101  A    between atoms: _226  and  _227
REMARK  102  A    between atoms: _226  and  _229
REMARK  103  A    between atoms: _229  and  _230
REMARK  104  A    between atoms: _235  and  _237
REMARK  105  A    between atoms: _237  and  _238
REMARK  106  A    between atoms: _237  and  _240
REMARK  107  A    between atoms: _240  and  _241
REMARK  108  A    between atoms: _246  and  _248
REMARK  109  A    between atoms: _248  and  _249
REMARK  110  A    between atoms: _248  and  _251
REMARK  111  A    between atoms: _251  and  _252
REMARK  112  A    between atoms: _255  and  _257
REMARK  113  A    between atoms: _257  and  _258
REMARK  114  A    between atoms: _257  and  _260
REMARK  115  A    between atoms: _260  and  _261
REMARK  116  A    between atoms: _267  and  _269
REMARK  117  A    between atoms: _269  and  _270
REMARK  118  A    between atoms: _269  and  _272
REMARK  119  A    between atoms: _272  and  _273
REMARK  120  A    between atoms: _283  and  _285
REMARK  121  A    between atoms: _285  and  _286
REMARK  122  A    between atoms: _285  and  _288
REMARK  123  A    between atoms: _288  and  _289
REMARK  124  A    between atoms: _293  and  ZN_303
REMARK  125  A    between atoms: _294  and  _296
REMARK  126  A    between atoms: _296  and  _297
REMARK  127  A    between atoms: _296  and  _299
REMARK  128  A    between atoms: _299  and  _300
REMARK                            x       y       z     vdW  Elec       q    Type
REMARK                         _______ _______ _______ _____ _____    ______ ____
ROOT
ATOM      1  O   HOH     1     -20.770   6.734  18.359  0.00  0.00    +0.000 OA
ENDROOT
TORSDOF 0
REMARK  Name = ../refined-set-2016/2afx/2afx_pocket.pdb
REMARK  128 active torsions:
REMARK  status: ('A' for Active; 'I' for Inactive)
REMARK    1  A    between atoms: _1  and  _3
REMARK    2  A    between atoms: _3  and  _4
REMARK    3  A    between atoms: _3  and  _6
REMARK    4  A    between atoms: _6  and  _7
REMARK    5  A    between atoms: _12  and  _14
REMARK    6  A    between atoms: _14  and  _15
REMARK    7  A    between atoms: _14  and  _17
REMARK    8  A    between atoms: _17  and  _18
REMARK    9  A    between atoms: _18  and  _19
REMARK   10  A    between atoms: _19  and  _20
REMARK   11  A    between atoms: _20  and  _21
REMARK   12  A    between atoms: _25  and  _27
REMARK   13  A    between atoms: _27  and  _28
REMARK   14  A    between atoms: _27  and  _30
REMARK   15  A    between atoms: _30  and  _31
REMARK   16  A    between atoms: _37  and  _39
REMARK   17  A    between atoms: _39  and  _40
REMARK   18  A    between atoms: _39  and  _42
REMARK   19  A    between atoms: _42  and  _43
REMARK   20  A    between atoms: _46  and  _48
REMARK   21  A    between atoms: _48  and  _49
REMARK   22  A    between atoms: _48  and  _51
REMARK   23  A    between atoms: _51  and  _52
REMARK   24  A    between atoms: _52  and  _54
REMARK   25  A    between atoms: _54  and  ZN_303
REMARK   26  A    between atoms: _55  and  _57
REMARK   27  A    between atoms: _57  and  _58
REMARK   28  A    between atoms: _57  and  _60
REMARK   29  A    between atoms: _60  and  _61
REMARK   30  A    between atoms: _63  and  _65
REMARK   31  A    between atoms: _65  and  _66
REMARK   32  A    between atoms: _65  and  _68
REMARK   33  A    between atoms: _68  and  _69
REMARK   34  A    between atoms: _69  and  _70
REMARK   35  A    between atoms: _73  and  _75
REMARK   36  A    between atoms: _75  and  _76
REMARK   37  A    between atoms: _75  and  _78
REMARK   38  A    between atoms: _78  and  _79
REMARK   39  A    between atoms: _79  and  _80
REMARK   40  A    between atoms: _80  and  _82
REMARK   41  A    between atoms: _82  and  ZN_303
REMARK   42  A    between atoms: _83  and  _85
REMARK   43  A    between atoms: _85  and  _86
REMARK   44  A    between atoms: _89  and  _91
REMARK   45  A    between atoms: _91  and  _92
REMARK   46  A    between atoms: _91  and  _94
REMARK   47  A    between atoms: _94  and  _95
REMARK   48  A    between atoms: _100  and  _102
REMARK   49  A    between atoms: _102  and  _103
REMARK   50  A    between atoms: _102  and  _105
REMARK   51  A    between atoms: _105  and  _106
REMARK   52  A    between atoms: _116  and  _118
REMARK   53  A    between atoms: _118  and  _119
REMARK   54  A    between atoms: _118  and  _121
REMARK   55  A    between atoms: _121  and  _122
REMARK   56  A    between atoms: _124  and  _126
REMARK   57  A    between atoms: _126  and  _127
REMARK   58  A    between atoms: _126  and  _129
REMARK   59  A    between atoms: _129  and  _130
REMARK   60  A    between atoms: _132  and  _134
REMARK   61  A    between atoms: _134  and  _135
REMARK   62  A    between atoms: _134  and  _137
REMARK   63  A    between atoms: _137  and  _138
REMARK   64  A    between atoms: _141  and  _143
REMARK   65  A    between atoms: _143  and  _144
REMARK   66  A    between atoms: _143  and  _146
REMARK   67  A    between atoms: _146  and  _147
REMARK   68  A    between atoms: _150  and  _152
REMARK   69  A    between atoms: _152  and  _153
REMARK   70  A    between atoms: _152  and  _155
REMARK   71  A    between atoms: _155  and  _156
REMARK   72  A    between atoms: _159  and  _161
REMARK   73  A    between atoms: _161  and  _162
REMARK   74  A    between atoms: _161  and  _164
REMARK   75  A    between atoms: _164  and  _165
REMARK   76  A    between atoms: _168  and  _170
REMARK   77  A    between atoms: _170  and  _171
REMARK   78  A    between atoms: _170  and  _173
REMARK   79  A    between atoms: _173  and  _174
REMARK   80  A    between atoms: _177  and  _179
REMARK   81  A    between atoms: _179  and  _180
REMARK   82  A    between atoms: _179  and  _182
REMARK   83  A    between atoms: _185  and  _187
REMARK   84  A    between atoms: _187  and  _188
REMARK   85  A    between atoms: _187  and  _190
REMARK   86  A    between atoms: _190  and  _191
REMARK   87  A    between atoms: _194  and  _196
REMARK   88  A    between atoms: _196  and  _197
REMARK   89  A    between atoms: _196  and  _199
REMARK   90  A    between atoms: _199  and  _200
REMARK   91  A    between atoms: _200  and  _201
REMARK   92  A    between atoms: _206  and  _208
REMARK   93  A    between atoms: _208  and  _209
REMARK   94  A    between atoms: _208  and  _211
REMARK   95  A    between atoms: _211  and  _212
REMARK   96  A    between atoms: _215  and  _217
REMARK   97  A    between atoms: _217  and  _218
REMARK   98  A    between atoms: _217  and  _220
REMARK   99  A    between atoms: _220  and  _221
REMARK  100  A    between atoms: _224  and  _226
REMARK  101  A    between atoms: _226  and  _227
REMARK  102  A    between atoms: _226  and  _229
REMARK  103  A    between atoms: _229  and  _230
REMARK  104  A    between atoms: _235  and  _237
REMARK  105  A    between atoms: _237  and  _238
REMARK  106  A    between atoms: _237  and  _240
REMARK  107  A    between atoms: _240  and  _241
REMARK  108  A    between atoms: _246  and  _248
REMARK  109  A    between atoms: _248  and  _249
REMARK  110  A    between atoms: _248  and  _251
REMARK  111  A    between atoms: _251  and  _252
REMARK  112  A    between atoms: _255  and  _257
REMARK  113  A    between atoms: _257  and  _258
REMARK  114  A    between atoms: _257  and  _260
REMARK  115  A    between atoms: _260  and  _261
REMARK  116  A    between atoms: _267  and  _269
REMARK  117  A    between atoms: _269  and  _270
REMARK  118  A    between atoms: _269  and  _272
REMARK  119  A    between atoms: _272  and  _273
REMARK  120  A    between atoms: _283  and  _285
REMARK  121  A    between atoms: _285  and  _286
REMARK  122  A    between atoms: _285  and  _288
REMARK  123  A    between atoms: _288  and  _289
REMARK  124  A    between atoms: _293  and  ZN_303
REMARK  125  A    between atoms: _294  and  _296
REMARK  126  A    between atoms: _296  and  _297
REMARK  127  A    between atoms: _296  and  _299
REMARK  128  A    between atoms: _299  and  _300
REMARK                            x       y       z     vdW  Elec       q    Type
REMARK                         _______ _______ _______ _____ _____    ______ ____
ROOT
ATOM      1  O   HOH     1     -19.641   5.285  15.967  0.00  0.00    +0.000 OA
ENDROOT
TORSDOF 0
REMARK  Name = ../refined-set-2016/2afx/2afx_pocket.pdb
REMARK  128 active torsions:
REMARK  status: ('A' for Active; 'I' for Inactive)
REMARK    1  A    between atoms: _1  and  _3
REMARK    2  A    between atoms: _3  and  _4
REMARK    3  A    between atoms: _3  and  _6
REMARK    4  A    between atoms: _6  and  _7
REMARK    5  A    between atoms: _12  and  _14
REMARK    6  A    between atoms: _14  and  _15
REMARK    7  A    between atoms: _14  and  _17
REMARK    8  A    between atoms: _17  and  _18
REMARK    9  A    between atoms: _18  and  _19
REMARK   10  A    between atoms: _19  and  _20
REMARK   11  A    between atoms: _20  and  _21
REMARK   12  A    between atoms: _25  and  _27
REMARK   13  A    between atoms: _27  and  _28
REMARK   14  A    between atoms: _27  and  _30
REMARK   15  A    between atoms: _30  and  _31
REMARK   16  A    between atoms: _37  and  _39
REMARK   17  A    between atoms: _39  and  _40
REMARK   18  A    between atoms: _39  and  _42
REMARK   19  A    between atoms: _42  and  _43
REMARK   20  A    between atoms: _46  and  _48
REMARK   21  A    between atoms: _48  and  _49
REMARK   22  A    between atoms: _48  and  _51
REMARK   23  A    between atoms: _51  and  _52
REMARK   24  A    between atoms: _52  and  _54
REMARK   25  A    between atoms: _54  and  ZN_303
REMARK   26  A    between atoms: _55  and  _57
REMARK   27  A    between atoms: _57  and  _58
REMARK   28  A    between atoms: _57  and  _60
REMARK   29  A    between atoms: _60  and  _61
REMARK   30  A    between atoms: _63  and  _65
REMARK   31  A    between atoms: _65  and  _66
REMARK   32  A    between atoms: _65  and  _68
REMARK   33  A    between atoms: _68  and  _69
REMARK   34  A    between atoms: _69  and  _70
REMARK   35  A    between atoms: _73  and  _75
REMARK   36  A    between atoms: _75  and  _76
REMARK   37  A    between atoms: _75  and  _78
REMARK   38  A    between atoms: _78  and  _79
REMARK   39  A    between atoms: _79  and  _80
REMARK   40  A    between atoms: _80  and  _82
REMARK   41  A    between atoms: _82  and  ZN_303
REMARK   42  A    between atoms: _83  and  _85
REMARK   43  A    between atoms: _85  and  _86
REMARK   44  A    between atoms: _89  and  _91
REMARK   45  A    between atoms: _91  and  _92
REMARK   46  A    between atoms: _91  and  _94
REMARK   47  A    between atoms: _94  and  _95
REMARK   48  A    between atoms: _100  and  _102
REMARK   49  A    between atoms: _102  and  _103
REMARK   50  A    between atoms: _102  and  _105
REMARK   51  A    between atoms: _105  and  _106
REMARK   52  A    between atoms: _116  and  _118
REMARK   53  A    between atoms: _118  and  _119
REMARK   54  A    between atoms: _118  and  _121
REMARK   55  A    between atoms: _121  and  _122
REMARK   56  A    between atoms: _124  and  _126
REMARK   57  A    between atoms: _126  and  _127
REMARK   58  A    between atoms: _126  and  _129
REMARK   59  A    between atoms: _129  and  _130
REMARK   60  A    between atoms: _132  and  _134
REMARK   61  A    between atoms: _134  and  _135
REMARK   62  A    between atoms: _134  and  _137
REMARK   63  A    between atoms: _137  and  _138
REMARK   64  A    between atoms: _141  and  _143
REMARK   65  A    between atoms: _143  and  _144
REMARK   66  A    between atoms: _143  and  _146
REMARK   67  A    between atoms: _146  and  _147
REMARK   68  A    between atoms: _150  and  _152
REMARK   69  A    between atoms: _152  and  _153
REMARK   70  A    between atoms: _152  and  _155
REMARK   71  A    between atoms: _155  and  _156
REMARK   72  A    between atoms: _159  and  _161
REMARK   73  A    between atoms: _161  and  _162
REMARK   74  A    between atoms: _161  and  _164
REMARK   75  A    between atoms: _164  and  _165
REMARK   76  A    between atoms: _168  and  _170
REMARK   77  A    between atoms: _170  and  _171
REMARK   78  A    between atoms: _170  and  _173
REMARK   79  A    between atoms: _173  and  _174
REMARK   80  A    between atoms: _177  and  _179
REMARK   81  A    between atoms: _179  and  _180
REMARK   82  A    between atoms: _179  and  _182
REMARK   83  A    between atoms: _185  and  _187
REMARK   84  A    between atoms: _187  and  _188
REMARK   85  A    between atoms: _187  and  _190
REMARK   86  A    between atoms: _190  and  _191
REMARK   87  A    between atoms: _194  and  _196
REMARK   88  A    between atoms: _196  and  _197
REMARK   89  A    between atoms: _196  and  _199
REMARK   90  A    between atoms: _199  and  _200
REMARK   91  A    between atoms: _200  and  _201
REMARK   92  A    between atoms: _206  and  _208
REMARK   93  A    between atoms: _208  and  _209
REMARK   94  A    between atoms: _208  and  _211
REMARK   95  A    between atoms: _211  and  _212
REMARK   96  A    between atoms: _215  and  _217
REMARK   97  A    between atoms: _217  and  _218
REMARK   98  A    between atoms: _217  and  _220
REMARK   99  A    between atoms: _220  and  _221
REMARK  100  A    between atoms: _224  and  _226
REMARK  101  A    between atoms: _226  and  _227
REMARK  102  A    between atoms: _226  and  _229
REMARK  103  A    between atoms: _229  and  _230
REMARK  104  A    between atoms: _235  and  _237
REMARK  105  A    between atoms: _237  and  _238
REMARK  106  A    between atoms: _237  and  _240
REMARK  107  A    between atoms: _240  and  _241
REMARK  108  A    between atoms: _246  and  _248
REMARK  109  A    between atoms: _248  and  _249
REMARK  110  A    between atoms: _248  and  _251
REMARK  111  A    between atoms: _251  and  _252
REMARK  112  A    between atoms: _255  and  _257
REMARK  113  A    between atoms: _257  and  _258
REMARK  114  A    between atoms: _257  and  _260
REMARK  115  A    between atoms: _260  and  _261
REMARK  116  A    between atoms: _267  and  _269
REMARK  117  A    between atoms: _269  and  _270
REMARK  118  A    between atoms: _269  and  _272
REMARK  119  A    between atoms: _272  and  _273
REMARK  120  A    between atoms: _283  and  _285
REMARK  121  A    between atoms: _285  and  _286
REMARK  122  A    between atoms: _285  and  _288
REMARK  123  A    between atoms: _288  and  _289
REMARK  124  A    between atoms: _293  and  ZN_303
REMARK  125  A    between atoms: _294  and  _296
REMARK  126  A    between atoms: _296  and  _297
REMARK  127  A    between atoms: _296  and  _299
REMARK  128  A    between atoms: _299  and  _300
REMARK                            x       y       z     vdW  Elec       q    Type
REMARK                         _______ _______ _______ _____ _____    ______ ____
ROOT
ATOM      1  O   HOH     1     -20.436  -2.704  21.959  0.00  0.00    +0.000 OA
ENDROOT
TORSDOF 0
REMARK  Name = ../refined-set-2016/2afx/2afx_pocket.pdb
REMARK  128 active torsions:
REMARK  status: ('A' for Active; 'I' for Inactive)
REMARK    1  A    between atoms: _1  and  _3
REMARK    2  A    between atoms: _3  and  _4
REMARK    3  A    between atoms: _3  and  _6
REMARK    4  A    between atoms: _6  and  _7
REMARK    5  A    between atoms: _12  and  _14
REMARK    6  A    between atoms: _14  and  _15
REMARK    7  A    between atoms: _14  and  _17
REMARK    8  A    between atoms: _17  and  _18
REMARK    9  A    between atoms: _18  and  _19
REMARK   10  A    between atoms: _19  and  _20
REMARK   11  A    between atoms: _20  and  _21
REMARK   12  A    between atoms: _25  and  _27
REMARK   13  A    between atoms: _27  and  _28
REMARK   14  A    between atoms: _27  and  _30
REMARK   15  A    between atoms: _30  and  _31
REMARK   16  A    between atoms: _37  and  _39
REMARK   17  A    between atoms: _39  and  _40
REMARK   18  A    between atoms: _39  and  _42
REMARK   19  A    between atoms: _42  and  _43
REMARK   20  A    between atoms: _46  and  _48
REMARK   21  A    between atoms: _48  and  _49
REMARK   22  A    between atoms: _48  and  _51
REMARK   23  A    between atoms: _51  and  _52
REMARK   24  A    between atoms: _52  and  _54
REMARK   25  A    between atoms: _54  and  ZN_303
REMARK   26  A    between atoms: _55  and  _57
REMARK   27  A    between atoms: _57  and  _58
REMARK   28  A    between atoms: _57  and  _60
REMARK   29  A    between atoms: _60  and  _61
REMARK   30  A    between atoms: _63  and  _65
REMARK   31  A    between atoms: _65  and  _66
REMARK   32  A    between atoms: _65  and  _68
REMARK   33  A    between atoms: _68  and  _69
REMARK   34  A    between atoms: _69  and  _70
REMARK   35  A    between atoms: _73  and  _75
REMARK   36  A    between atoms: _75  and  _76
REMARK   37  A    between atoms: _75  and  _78
REMARK   38  A    between atoms: _78  and  _79
REMARK   39  A    between atoms: _79  and  _80
REMARK   40  A    between atoms: _80  and  _82
REMARK   41  A    between atoms: _82  and  ZN_303
REMARK   42  A    between atoms: _83  and  _85
REMARK   43  A    between atoms: _85  and  _86
REMARK   44  A    between atoms: _89  and  _91
REMARK   45  A    between atoms: _91  and  _92
REMARK   46  A    between atoms: _91  and  _94
REMARK   47  A    between atoms: _94  and  _95
REMARK   48  A    between atoms: _100  and  _102
REMARK   49  A    between atoms: _102  and  _103
REMARK   50  A    between atoms: _102  and  _105
REMARK   51  A    between atoms: _105  and  _106
REMARK   52  A    between atoms: _116  and  _118
REMARK   53  A    between atoms: _118  and  _119
REMARK   54  A    between atoms: _118  and  _121
REMARK   55  A    between atoms: _121  and  _122
REMARK   56  A    between atoms: _124  and  _126
REMARK   57  A    between atoms: _126  and  _127
REMARK   58  A    between atoms: _126  and  _129
REMARK   59  A    between atoms: _129  and  _130
REMARK   60  A    between atoms: _132  and  _134
REMARK   61  A    between atoms: _134  and  _135
REMARK   62  A    between atoms: _134  and  _137
REMARK   63  A    between atoms: _137  and  _138
REMARK   64  A    between atoms: _141  and  _143
REMARK   65  A    between atoms: _143  and  _144
REMARK   66  A    between atoms: _143  and  _146
REMARK   67  A    between atoms: _146  and  _147
REMARK   68  A    between atoms: _150  and  _152
REMARK   69  A    between atoms: _152  and  _153
REMARK   70  A    between atoms: _152  and  _155
REMARK   71  A    between atoms: _155  and  _156
REMARK   72  A    between atoms: _159  and  _161
REMARK   73  A    between atoms: _161  and  _162
REMARK   74  A    between atoms: _161  and  _164
REMARK   75  A    between atoms: _164  and  _165
REMARK   76  A    between atoms: _168  and  _170
REMARK   77  A    between atoms: _170  and  _171
REMARK   78  A    between atoms: _170  and  _173
REMARK   79  A    between atoms: _173  and  _174
REMARK   80  A    between atoms: _177  and  _179
REMARK   81  A    between atoms: _179  and  _180
REMARK   82  A    between atoms: _179  and  _182
REMARK   83  A    between atoms: _185  and  _187
REMARK   84  A    between atoms: _187  and  _188
REMARK   85  A    between atoms: _187  and  _190
REMARK   86  A    between atoms: _190  and  _191
REMARK   87  A    between atoms: _194  and  _196
REMARK   88  A    between atoms: _196  and  _197
REMARK   89  A    between atoms: _196  and  _199
REMARK   90  A    between atoms: _199  and  _200
REMARK   91  A    between atoms: _200  and  _201
REMARK   92  A    between atoms: _206  and  _208
REMARK   93  A    between atoms: _208  and  _209
REMARK   94  A    between atoms: _208  and  _211
REMARK   95  A    between atoms: _211  and  _212
REMARK   96  A    between atoms: _215  and  _217
REMARK   97  A    between atoms: _217  and  _218
REMARK   98  A    between atoms: _217  and  _220
REMARK   99  A    between atoms: _220  and  _221
REMARK  100  A    between atoms: _224  and  _226
REMARK  101  A    between atoms: _226  and  _227
REMARK  102  A    between atoms: _226  and  _229
REMARK  103  A    between atoms: _229  and  _230
REMARK  104  A    between atoms: _235  and  _237
REMARK  105  A    between atoms: _237  and  _238
REMARK  106  A    between atoms: _237  and  _240
REMARK  107  A    between atoms: _240  and  _241
REMARK  108  A    between atoms: _246  and  _248
REMARK  109  A    between atoms: _248  and  _249
REMARK  110  A    between atoms: _248  and  _251
REMARK  111  A    between atoms: _251  and  _252
REMARK  112  A    between atoms: _255  and  _257
REMARK  113  A    between atoms: _257  and  _258
REMARK  114  A    between atoms: _257  and  _260
REMARK  115  A    between atoms: _260  and  _261
REMARK  116  A    between atoms: _267  and  _269
REMARK  117  A    between atoms: _269  and  _270
REMARK  118  A    between atoms: _269  and  _272
REMARK  119  A    between atoms: _272  and  _273
REMARK  120  A    between atoms: _283  and  _285
REMARK  121  A    between atoms: _285  and  _286
REMARK  122  A    between atoms: _285  and  _288
REMARK  123  A    between atoms: _288  and  _289
REMARK  124  A    between atoms: _293  and  ZN_303
REMARK  125  A    between atoms: _294  and  _296
REMARK  126  A    between atoms: _296  and  _297
REMARK  127  A    between atoms: _296  and  _299
REMARK  128  A    between atoms: _299  and  _300
REMARK                            x       y       z     vdW  Elec       q    Type
REMARK                         _______ _______ _______ _____ _____    ______ ____
ROOT
ATOM      1  O   HOH     1     -18.466  -2.711  23.852  0.00  0.00    +0.000 OA
ENDROOT
TORSDOF 0
REMARK  Name = ../refined-set-2016/2afx/2afx_pocket.pdb
REMARK  128 active torsions:
REMARK  status: ('A' for Active; 'I' for Inactive)
REMARK    1  A    between atoms: _1  and  _3
REMARK    2  A    between atoms: _3  and  _4
REMARK    3  A    between atoms: _3  and  _6
REMARK    4  A    between atoms: _6  and  _7
REMARK    5  A    between atoms: _12  and  _14
REMARK    6  A    between atoms: _14  and  _15
REMARK    7  A    between atoms: _14  and  _17
REMARK    8  A    between atoms: _17  and  _18
REMARK    9  A    between atoms: _18  and  _19
REMARK   10  A    between atoms: _19  and  _20
REMARK   11  A    between atoms: _20  and  _21
REMARK   12  A    between atoms: _25  and  _27
REMARK   13  A    between atoms: _27  and  _28
REMARK   14  A    between atoms: _27  and  _30
REMARK   15  A    between atoms: _30  and  _31
REMARK   16  A    between atoms: _37  and  _39
REMARK   17  A    between atoms: _39  and  _40
REMARK   18  A    between atoms: _39  and  _42
REMARK   19  A    between atoms: _42  and  _43
REMARK   20  A    between atoms: _46  and  _48
REMARK   21  A    between atoms: _48  and  _49
REMARK   22  A    between atoms: _48  and  _51
REMARK   23  A    between atoms: _51  and  _52
REMARK   24  A    between atoms: _52  and  _54
REMARK   25  A    between atoms: _54  and  ZN_303
REMARK   26  A    between atoms: _55  and  _57
REMARK   27  A    between atoms: _57  and  _58
REMARK   28  A    between atoms: _57  and  _60
REMARK   29  A    between atoms: _60  and  _61
REMARK   30  A    between atoms: _63  and  _65
REMARK   31  A    between atoms: _65  and  _66
REMARK   32  A    between atoms: _65  and  _68
REMARK   33  A    between atoms: _68  and  _69
REMARK   34  A    between atoms: _69  and  _70
REMARK   35  A    between atoms: _73  and  _75
REMARK   36  A    between atoms: _75  and  _76
REMARK   37  A    between atoms: _75  and  _78
REMARK   38  A    between atoms: _78  and  _79
REMARK   39  A    between atoms: _79  and  _80
REMARK   40  A    between atoms: _80  and  _82
REMARK   41  A    between atoms: _82  and  ZN_303
REMARK   42  A    between atoms: _83  and  _85
REMARK   43  A    between atoms: _85  and  _86
REMARK   44  A    between atoms: _89  and  _91
REMARK   45  A    between atoms: _91  and  _92
REMARK   46  A    between atoms: _91  and  _94
REMARK   47  A    between atoms: _94  and  _95
REMARK   48  A    between atoms: _100  and  _102
REMARK   49  A    between atoms: _102  and  _103
REMARK   50  A    between atoms: _102  and  _105
REMARK   51  A    between atoms: _105  and  _106
REMARK   52  A    between atoms: _116  and  _118
REMARK   53  A    between atoms: _118  and  _119
REMARK   54  A    between atoms: _118  and  _121
REMARK   55  A    between atoms: _121  and  _122
REMARK   56  A    between atoms: _124  and  _126
REMARK   57  A    between atoms: _126  and  _127
REMARK   58  A    between atoms: _126  and  _129
REMARK   59  A    between atoms: _129  and  _130
REMARK   60  A    between atoms: _132  and  _134
REMARK   61  A    between atoms: _134  and  _135
REMARK   62  A    between atoms: _134  and  _137
REMARK   63  A    between atoms: _137  and  _138
REMARK   64  A    between atoms: _141  and  _143
REMARK   65  A    between atoms: _143  and  _144
REMARK   66  A    between atoms: _143  and  _146
REMARK   67  A    between atoms: _146  and  _147
REMARK   68  A    between atoms: _150  and  _152
REMARK   69  A    between atoms: _152  and  _153
REMARK   70  A    between atoms: _152  and  _155
REMARK   71  A    between atoms: _155  and  _156
REMARK   72  A    between atoms: _159  and  _161
REMARK   73  A    between atoms: _161  and  _162
REMARK   74  A    between atoms: _161  and  _164
REMARK   75  A    between atoms: _164  and  _165
REMARK   76  A    between atoms: _168  and  _170
REMARK   77  A    between atoms: _170  and  _171
REMARK   78  A    between atoms: _170  and  _173
REMARK   79  A    between atoms: _173  and  _174
REMARK   80  A    between atoms: _177  and  _179
REMARK   81  A    between atoms: _179  and  _180
REMARK   82  A    between atoms: _179  and  _182
REMARK   83  A    between atoms: _185  and  _187
REMARK   84  A    between atoms: _187  and  _188
REMARK   85  A    between atoms: _187  and  _190
REMARK   86  A    between atoms: _190  and  _191
REMARK   87  A    between atoms: _194  and  _196
REMARK   88  A    between atoms: _196  and  _197
REMARK   89  A    between atoms: _196  and  _199
REMARK   90  A    between atoms: _199  and  _200
REMARK   91  A    between atoms: _200  and  _201
REMARK   92  A    between atoms: _206  and  _208
REMARK   93  A    between atoms: _208  and  _209
REMARK   94  A    between atoms: _208  and  _211
REMARK   95  A    between atoms: _211  and  _212
REMARK   96  A    between atoms: _215  and  _217
REMARK   97  A    between atoms: _217  and  _218
REMARK   98  A    between atoms: _217  and  _220
REMARK   99  A    between atoms: _220  and  _221
REMARK  100  A    between atoms: _224  and  _226
REMARK  101  A    between atoms: _226  and  _227
REMARK  102  A    between atoms: _226  and  _229
REMARK  103  A    between atoms: _229  and  _230
REMARK  104  A    between atoms: _235  and  _237
REMARK  105  A    between atoms: _237  and  _238
REMARK  106  A    between atoms: _237  and  _240
REMARK  107  A    between atoms: _240  and  _241
REMARK  108  A    between atoms: _246  and  _248
REMARK  109  A    between atoms: _248  and  _249
REMARK  110  A    between atoms: _248  and  _251
REMARK  111  A    between atoms: _251  and  _252
REMARK  112  A    between atoms: _255  and  _257
REMARK  113  A    between atoms: _257  and  _258
REMARK  114  A    between atoms: _257  and  _260
REMARK  115  A    between atoms: _260  and  _261
REMARK  116  A    between atoms: _267  and  _269
REMARK  117  A    between atoms: _269  and  _270
REMARK  118  A    between atoms: _269  and  _272
REMARK  119  A    between atoms: _272  and  _273
REMARK  120  A    between atoms: _283  and  _285
REMARK  121  A    between atoms: _285  and  _286
REMARK  122  A    between atoms: _285  and  _288
REMARK  123  A    between atoms: _288  and  _289
REMARK  124  A    between atoms: _293  and  ZN_303
REMARK  125  A    between atoms: _294  and  _296
REMARK  126  A    between atoms: _296  and  _297
REMARK  127  A    between atoms: _296  and  _299
REMARK  128  A    between atoms: _299  and  _300
REMARK                            x       y       z     vdW  Elec       q    Type
REMARK                         _______ _______ _______ _____ _____    ______ ____
ROOT
ATOM      1  O   HOH     1     -22.582   5.134  23.334  0.00  0.00    +0.000 OA
ENDROOT
TORSDOF 0
REMARK  Name = ../refined-set-2016/2afx/2afx_pocket.pdb
REMARK  128 active torsions:
REMARK  status: ('A' for Active; 'I' for Inactive)
REMARK    1  A    between atoms: _1  and  _3
REMARK    2  A    between atoms: _3  and  _4
REMARK    3  A    between atoms: _3  and  _6
REMARK    4  A    between atoms: _6  and  _7
REMARK    5  A    between atoms: _12  and  _14
REMARK    6  A    between atoms: _14  and  _15
REMARK    7  A    between atoms: _14  and  _17
REMARK    8  A    between atoms: _17  and  _18
REMARK    9  A    between atoms: _18  and  _19
REMARK   10  A    between atoms: _19  and  _20
REMARK   11  A    between atoms: _20  and  _21
REMARK   12  A    between atoms: _25  and  _27
REMARK   13  A    between atoms: _27  and  _28
REMARK   14  A    between atoms: _27  and  _30
REMARK   15  A    between atoms: _30  and  _31
REMARK   16  A    between atoms: _37  and  _39
REMARK   17  A    between atoms: _39  and  _40
REMARK   18  A    between atoms: _39  and  _42
REMARK   19  A    between atoms: _42  and  _43
REMARK   20  A    between atoms: _46  and  _48
REMARK   21  A    between atoms: _48  and  _49
REMARK   22  A    between atoms: _48  and  _51
REMARK   23  A    between atoms: _51  and  _52
REMARK   24  A    between atoms: _52  and  _54
REMARK   25  A    between atoms: _54  and  ZN_303
REMARK   26  A    between atoms: _55  and  _57
REMARK   27  A    between atoms: _57  and  _58
REMARK   28  A    between atoms: _57  and  _60
REMARK   29  A    between atoms: _60  and  _61
REMARK   30  A    between atoms: _63  and  _65
REMARK   31  A    between atoms: _65  and  _66
REMARK   32  A    between atoms: _65  and  _68
REMARK   33  A    between atoms: _68  and  _69
REMARK   34  A    between atoms: _69  and  _70
REMARK   35  A    between atoms: _73  and  _75
REMARK   36  A    between atoms: _75  and  _76
REMARK   37  A    between atoms: _75  and  _78
REMARK   38  A    between atoms: _78  and  _79
REMARK   39  A    between atoms: _79  and  _80
REMARK   40  A    between atoms: _80  and  _82
REMARK   41  A    between atoms: _82  and  ZN_303
REMARK   42  A    between atoms: _83  and  _85
REMARK   43  A    between atoms: _85  and  _86
REMARK   44  A    between atoms: _89  and  _91
REMARK   45  A    between atoms: _91  and  _92
REMARK   46  A    between atoms: _91  and  _94
REMARK   47  A    between atoms: _94  and  _95
REMARK   48  A    between atoms: _100  and  _102
REMARK   49  A    between atoms: _102  and  _103
REMARK   50  A    between atoms: _102  and  _105
REMARK   51  A    between atoms: _105  and  _106
REMARK   52  A    between atoms: _116  and  _118
REMARK   53  A    between atoms: _118  and  _119
REMARK   54  A    between atoms: _118  and  _121
REMARK   55  A    between atoms: _121  and  _122
REMARK   56  A    between atoms: _124  and  _126
REMARK   57  A    between atoms: _126  and  _127
REMARK   58  A    between atoms: _126  and  _129
REMARK   59  A    between atoms: _129  and  _130
REMARK   60  A    between atoms: _132  and  _134
REMARK   61  A    between atoms: _134  and  _135
REMARK   62  A    between atoms: _134  and  _137
REMARK   63  A    between atoms: _137  and  _138
REMARK   64  A    between atoms: _141  and  _143
REMARK   65  A    between atoms: _143  and  _144
REMARK   66  A    between atoms: _143  and  _146
REMARK   67  A    between atoms: _146  and  _147
REMARK   68  A    between atoms: _150  and  _152
REMARK   69  A    between atoms: _152  and  _153
REMARK   70  A    between atoms: _152  and  _155
REMARK   71  A    between atoms: _155  and  _156
REMARK   72  A    between atoms: _159  and  _161
REMARK   73  A    between atoms: _161  and  _162
REMARK   74  A    between atoms: _161  and  _164
REMARK   75  A    between atoms: _164  and  _165
REMARK   76  A    between atoms: _168  and  _170
REMARK   77  A    between atoms: _170  and  _171
REMARK   78  A    between atoms: _170  and  _173
REMARK   79  A    between atoms: _173  and  _174
REMARK   80  A    between atoms: _177  and  _179
REMARK   81  A    between atoms: _179  and  _180
REMARK   82  A    between atoms: _179  and  _182
REMARK   83  A    between atoms: _185  and  _187
REMARK   84  A    between atoms: _187  and  _188
REMARK   85  A    between atoms: _187  and  _190
REMARK   86  A    between atoms: _190  and  _191
REMARK   87  A    between atoms: _194  and  _196
REMARK   88  A    between atoms: _196  and  _197
REMARK   89  A    between atoms: _196  and  _199
REMARK   90  A    between atoms: _199  and  _200
REMARK   91  A    between atoms: _200  and  _201
REMARK   92  A    between atoms: _206  and  _208
REMARK   93  A    between atoms: _208  and  _209
REMARK   94  A    between atoms: _208  and  _211
REMARK   95  A    between atoms: _211  and  _212
REMARK   96  A    between atoms: _215  and  _217
REMARK   97  A    between atoms: _217  and  _218
REMARK   98  A    between atoms: _217  and  _220
REMARK   99  A    between atoms: _220  and  _221
REMARK  100  A    between atoms: _224  and  _226
REMARK  101  A    between atoms: _226  and  _227
REMARK  102  A    between atoms: _226  and  _229
REMARK  103  A    between atoms: _229  and  _230
REMARK  104  A    between atoms: _235  and  _237
REMARK  105  A    between atoms: _237  and  _238
REMARK  106  A    between atoms: _237  and  _240
REMARK  107  A    between atoms: _240  and  _241
REMARK  108  A    between atoms: _246  and  _248
REMARK  109  A    between atoms: _248  and  _249
REMARK  110  A    between atoms: _248  and  _251
REMARK  111  A    between atoms: _251  and  _252
REMARK  112  A    between atoms: _255  and  _257
REMARK  113  A    between atoms: _257  and  _258
REMARK  114  A    between atoms: _257  and  _260
REMARK  115  A    between atoms: _260  and  _261
REMARK  116  A    between atoms: _267  and  _269
REMARK  117  A    between atoms: _269  and  _270
REMARK  118  A    between atoms: _269  and  _272
REMARK  119  A    between atoms: _272  and  _273
REMARK  120  A    between atoms: _283  and  _285
REMARK  121  A    between atoms: _285  and  _286
REMARK  122  A    between atoms: _285  and  _288
REMARK  123  A    between atoms: _288  and  _289
REMARK  124  A    between atoms: _293  and  ZN_303
REMARK  125  A    between atoms: _294  and  _296
REMARK  126  A    between atoms: _296  and  _297
REMARK  127  A    between atoms: _296  and  _299
REMARK  128  A    between atoms: _299  and  _300
REMARK                            x       y       z     vdW  Elec       q    Type
REMARK                         _______ _______ _______ _____ _____    ______ ____
ROOT
ATOM      1  O   HOH     1     -16.788   7.375  26.407  0.00  0.00    +0.000 OA
ENDROOT
TORSDOF 0
REMARK  Name = ../refined-set-2016/2afx/2afx_pocket.pdb
REMARK  128 active torsions:
REMARK  status: ('A' for Active; 'I' for Inactive)
REMARK    1  A    between atoms: _1  and  _3
REMARK    2  A    between atoms: _3  and  _4
REMARK    3  A    between atoms: _3  and  _6
REMARK    4  A    between atoms: _6  and  _7
REMARK    5  A    between atoms: _12  and  _14
REMARK    6  A    between atoms: _14  and  _15
REMARK    7  A    between atoms: _14  and  _17
REMARK    8  A    between atoms: _17  and  _18
REMARK    9  A    between atoms: _18  and  _19
REMARK   10  A    between atoms: _19  and  _20
REMARK   11  A    between atoms: _20  and  _21
REMARK   12  A    between atoms: _25  and  _27
REMARK   13  A    between atoms: _27  and  _28
REMARK   14  A    between atoms: _27  and  _30
REMARK   15  A    between atoms: _30  and  _31
REMARK   16  A    between atoms: _37  and  _39
REMARK   17  A    between atoms: _39  and  _40
REMARK   18  A    between atoms: _39  and  _42
REMARK   19  A    between atoms: _42  and  _43
REMARK   20  A    between atoms: _46  and  _48
REMARK   21  A    between atoms: _48  and  _49
REMARK   22  A    between atoms: _48  and  _51
REMARK   23  A    between atoms: _51  and  _52
REMARK   24  A    between atoms: _52  and  _54
REMARK   25  A    between atoms: _54  and  ZN_303
REMARK   26  A    between atoms: _55  and  _57
REMARK   27  A    between atoms: _57  and  _58
REMARK   28  A    between atoms: _57  and  _60
REMARK   29  A    between atoms: _60  and  _61
REMARK   30  A    between atoms: _63  and  _65
REMARK   31  A    between atoms: _65  and  _66
REMARK   32  A    between atoms: _65  and  _68
REMARK   33  A    between atoms: _68  and  _69
REMARK   34  A    between atoms: _69  and  _70
REMARK   35  A    between atoms: _73  and  _75
REMARK   36  A    between atoms: _75  and  _76
REMARK   37  A    between atoms: _75  and  _78
REMARK   38  A    between atoms: _78  and  _79
REMARK   39  A    between atoms: _79  and  _80
REMARK   40  A    between atoms: _80  and  _82
REMARK   41  A    between atoms: _82  and  ZN_303
REMARK   42  A    between atoms: _83  and  _85
REMARK   43  A    between atoms: _85  and  _86
REMARK   44  A    between atoms: _89  and  _91
REMARK   45  A    between atoms: _91  and  _92
REMARK   46  A    between atoms: _91  and  _94
REMARK   47  A    between atoms: _94  and  _95
REMARK   48  A    between atoms: _100  and  _102
REMARK   49  A    between atoms: _102  and  _103
REMARK   50  A    between atoms: _102  and  _105
REMARK   51  A    between atoms: _105  and  _106
REMARK   52  A    between atoms: _116  and  _118
REMARK   53  A    between atoms: _118  and  _119
REMARK   54  A    between atoms: _118  and  _121
REMARK   55  A    between atoms: _121  and  _122
REMARK   56  A    between atoms: _124  and  _126
REMARK   57  A    between atoms: _126  and  _127
REMARK   58  A    between atoms: _126  and  _129
REMARK   59  A    between atoms: _129  and  _130
REMARK   60  A    between atoms: _132  and  _134
REMARK   61  A    between atoms: _134  and  _135
REMARK   62  A    between atoms: _134  and  _137
REMARK   63  A    between atoms: _137  and  _138
REMARK   64  A    between atoms: _141  and  _143
REMARK   65  A    between atoms: _143  and  _144
REMARK   66  A    between atoms: _143  and  _146
REMARK   67  A    between atoms: _146  and  _147
REMARK   68  A    between atoms: _150  and  _152
REMARK   69  A    between atoms: _152  and  _153
REMARK   70  A    between atoms: _152  and  _155
REMARK   71  A    between atoms: _155  and  _156
REMARK   72  A    between atoms: _159  and  _161
REMARK   73  A    between atoms: _161  and  _162
REMARK   74  A    between atoms: _161  and  _164
REMARK   75  A    between atoms: _164  and  _165
REMARK   76  A    between atoms: _168  and  _170
REMARK   77  A    between atoms: _170  and  _171
REMARK   78  A    between atoms: _170  and  _173
REMARK   79  A    between atoms: _173  and  _174
REMARK   80  A    between atoms: _177  and  _179
REMARK   81  A    between atoms: _179  and  _180
REMARK   82  A    between atoms: _179  and  _182
REMARK   83  A    between atoms: _185  and  _187
REMARK   84  A    between atoms: _187  and  _188
REMARK   85  A    between atoms: _187  and  _190
REMARK   86  A    between atoms: _190  and  _191
REMARK   87  A    between atoms: _194  and  _196
REMARK   88  A    between atoms: _196  and  _197
REMARK   89  A    between atoms: _196  and  _199
REMARK   90  A    between atoms: _199  and  _200
REMARK   91  A    between atoms: _200  and  _201
REMARK   92  A    between atoms: _206  and  _208
REMARK   93  A    between atoms: _208  and  _209
REMARK   94  A    between atoms: _208  and  _211
REMARK   95  A    between atoms: _211  and  _212
REMARK   96  A    between atoms: _215  and  _217
REMARK   97  A    between atoms: _217  and  _218
REMARK   98  A    between atoms: _217  and  _220
REMARK   99  A    between atoms: _220  and  _221
REMARK  100  A    between atoms: _224  and  _226
REMARK  101  A    between atoms: _226  and  _227
REMARK  102  A    between atoms: _226  and  _229
REMARK  103  A    between atoms: _229  and  _230
REMARK  104  A    between atoms: _235  and  _237
REMARK  105  A    between atoms: _237  and  _238
REMARK  106  A    between atoms: _237  and  _240
REMARK  107  A    between atoms: _240  and  _241
REMARK  108  A    between atoms: _246  and  _248
REMARK  109  A    between atoms: _248  and  _249
REMARK  110  A    between atoms: _248  and  _251
REMARK  111  A    between atoms: _251  and  _252
REMARK  112  A    between atoms: _255  and  _257
REMARK  113  A    between atoms: _257  and  _258
REMARK  114  A    between atoms: _257  and  _260
REMARK  115  A    between atoms: _260  and  _261
REMARK  116  A    between atoms: _267  and  _269
REMARK  117  A    between atoms: _269  and  _270
REMARK  118  A    between atoms: _269  and  _272
REMARK  119  A    between atoms: _272  and  _273
REMARK  120  A    between atoms: _283  and  _285
REMARK  121  A    between atoms: _285  and  _286
REMARK  122  A    between atoms: _285  and  _288
REMARK  123  A    between atoms: _288  and  _289
REMARK  124  A    between atoms: _293  and  ZN_303
REMARK  125  A    between atoms: _294  and  _296
REMARK  126  A    between atoms: _296  and  _297
REMARK  127  A    between atoms: _296  and  _299
REMARK  128  A    between atoms: _299  and  _300
REMARK                            x       y       z     vdW  Elec       q    Type
REMARK                         _______ _______ _______ _____ _____    ______ ____
ROOT
ATOM      1  O   HOH     1     -15.713  11.346  22.447  0.00  0.00    +0.000 OA
ENDROOT
TORSDOF 0
REMARK  Name = ../refined-set-2016/2afx/2afx_pocket.pdb
REMARK  128 active torsions:
REMARK  status: ('A' for Active; 'I' for Inactive)
REMARK    1  A    between atoms: _1  and  _3
REMARK    2  A    between atoms: _3  and  _4
REMARK    3  A    between atoms: _3  and  _6
REMARK    4  A    between atoms: _6  and  _7
REMARK    5  A    between atoms: _12  and  _14
REMARK    6  A    between atoms: _14  and  _15
REMARK    7  A    between atoms: _14  and  _17
REMARK    8  A    between atoms: _17  and  _18
REMARK    9  A    between atoms: _18  and  _19
REMARK   10  A    between atoms: _19  and  _20
REMARK   11  A    between atoms: _20  and  _21
REMARK   12  A    between atoms: _25  and  _27
REMARK   13  A    between atoms: _27  and  _28
REMARK   14  A    between atoms: _27  and  _30
REMARK   15  A    between atoms: _30  and  _31
REMARK   16  A    between atoms: _37  and  _39
REMARK   17  A    between atoms: _39  and  _40
REMARK   18  A    between atoms: _39  and  _42
REMARK   19  A    between atoms: _42  and  _43
REMARK   20  A    between atoms: _46  and  _48
REMARK   21  A    between atoms: _48  and  _49
REMARK   22  A    between atoms: _48  and  _51
REMARK   23  A    between atoms: _51  and  _52
REMARK   24  A    between atoms: _52  and  _54
REMARK   25  A    between atoms: _54  and  ZN_303
REMARK   26  A    between atoms: _55  and  _57
REMARK   27  A    between atoms: _57  and  _58
REMARK   28  A    between atoms: _57  and  _60
REMARK   29  A    between atoms: _60  and  _61
REMARK   30  A    between atoms: _63  and  _65
REMARK   31  A    between atoms: _65  and  _66
REMARK   32  A    between atoms: _65  and  _68
REMARK   33  A    between atoms: _68  and  _69
REMARK   34  A    between atoms: _69  and  _70
REMARK   35  A    between atoms: _73  and  _75
REMARK   36  A    between atoms: _75  and  _76
REMARK   37  A    between atoms: _75  and  _78
REMARK   38  A    between atoms: _78  and  _79
REMARK   39  A    between atoms: _79  and  _80
REMARK   40  A    between atoms: _80  and  _82
REMARK   41  A    between atoms: _82  and  ZN_303
REMARK   42  A    between atoms: _83  and  _85
REMARK   43  A    between atoms: _85  and  _86
REMARK   44  A    between atoms: _89  and  _91
REMARK   45  A    between atoms: _91  and  _92
REMARK   46  A    between atoms: _91  and  _94
REMARK   47  A    between atoms: _94  and  _95
REMARK   48  A    between atoms: _100  and  _102
REMARK   49  A    between atoms: _102  and  _103
REMARK   50  A    between atoms: _102  and  _105
REMARK   51  A    between atoms: _105  and  _106
REMARK   52  A    between atoms: _116  and  _118
REMARK   53  A    between atoms: _118  and  _119
REMARK   54  A    between atoms: _118  and  _121
REMARK   55  A    between atoms: _121  and  _122
REMARK   56  A    between atoms: _124  and  _126
REMARK   57  A    between atoms: _126  and  _127
REMARK   58  A    between atoms: _126  and  _129
REMARK   59  A    between atoms: _129  and  _130
REMARK   60  A    between atoms: _132  and  _134
REMARK   61  A    between atoms: _134  and  _135
REMARK   62  A    between atoms: _134  and  _137
REMARK   63  A    between atoms: _137  and  _138
REMARK   64  A    between atoms: _141  and  _143
REMARK   65  A    between atoms: _143  and  _144
REMARK   66  A    between atoms: _143  and  _146
REMARK   67  A    between atoms: _146  and  _147
REMARK   68  A    between atoms: _150  and  _152
REMARK   69  A    between atoms: _152  and  _153
REMARK   70  A    between atoms: _152  and  _155
REMARK   71  A    between atoms: _155  and  _156
REMARK   72  A    between atoms: _159  and  _161
REMARK   73  A    between atoms: _161  and  _162
REMARK   74  A    between atoms: _161  and  _164
REMARK   75  A    between atoms: _164  and  _165
REMARK   76  A    between atoms: _168  and  _170
REMARK   77  A    between atoms: _170  and  _171
REMARK   78  A    between atoms: _170  and  _173
REMARK   79  A    between atoms: _173  and  _174
REMARK   80  A    between atoms: _177  and  _179
REMARK   81  A    between atoms: _179  and  _180
REMARK   82  A    between atoms: _179  and  _182
REMARK   83  A    between atoms: _185  and  _187
REMARK   84  A    between atoms: _187  and  _188
REMARK   85  A    between atoms: _187  and  _190
REMARK   86  A    between atoms: _190  and  _191
REMARK   87  A    between atoms: _194  and  _196
REMARK   88  A    between atoms: _196  and  _197
REMARK   89  A    between atoms: _196  and  _199
REMARK   90  A    between atoms: _199  and  _200
REMARK   91  A    between atoms: _200  and  _201
REMARK   92  A    between atoms: _206  and  _208
REMARK   93  A    between atoms: _208  and  _209
REMARK   94  A    between atoms: _208  and  _211
REMARK   95  A    between atoms: _211  and  _212
REMARK   96  A    between atoms: _215  and  _217
REMARK   97  A    between atoms: _217  and  _218
REMARK   98  A    between atoms: _217  and  _220
REMARK   99  A    between atoms: _220  and  _221
REMARK  100  A    between atoms: _224  and  _226
REMARK  101  A    between atoms: _226  and  _227
REMARK  102  A    between atoms: _226  and  _229
REMARK  103  A    between atoms: _229  and  _230
REMARK  104  A    between atoms: _235  and  _237
REMARK  105  A    between atoms: _237  and  _238
REMARK  106  A    between atoms: _237  and  _240
REMARK  107  A    between atoms: _240  and  _241
REMARK  108  A    between atoms: _246  and  _248
REMARK  109  A    between atoms: _248  and  _249
REMARK  110  A    between atoms: _248  and  _251
REMARK  111  A    between atoms: _251  and  _252
REMARK  112  A    between atoms: _255  and  _257
REMARK  113  A    between atoms: _257  and  _258
REMARK  114  A    between atoms: _257  and  _260
REMARK  115  A    between atoms: _260  and  _261
REMARK  116  A    between atoms: _267  and  _269
REMARK  117  A    between atoms: _269  and  _270
REMARK  118  A    between atoms: _269  and  _272
REMARK  119  A    between atoms: _272  and  _273
REMARK  120  A    between atoms: _283  and  _285
REMARK  121  A    between atoms: _285  and  _286
REMARK  122  A    between atoms: _285  and  _288
REMARK  123  A    between atoms: _288  and  _289
REMARK  124  A    between atoms: _293  and  ZN_303
REMARK  125  A    between atoms: _294  and  _296
REMARK  126  A    between atoms: _296  and  _297
REMARK  127  A    between atoms: _296  and  _299
REMARK  128  A    between atoms: _299  and  _300
REMARK                            x       y       z     vdW  Elec       q    Type
REMARK                         _______ _______ _______ _____ _____    ______ ____
ROOT
ATOM      1  O   HOH     1      -9.692   3.614  14.986  0.00  0.00    +0.000 OA
ENDROOT
TORSDOF 0
REMARK  Name = ../refined-set-2016/2afx/2afx_pocket.pdb
REMARK  128 active torsions:
REMARK  status: ('A' for Active; 'I' for Inactive)
REMARK    1  A    between atoms: _1  and  _3
REMARK    2  A    between atoms: _3  and  _4
REMARK    3  A    between atoms: _3  and  _6
REMARK    4  A    between atoms: _6  and  _7
REMARK    5  A    between atoms: _12  and  _14
REMARK    6  A    between atoms: _14  and  _15
REMARK    7  A    between atoms: _14  and  _17
REMARK    8  A    between atoms: _17  and  _18
REMARK    9  A    between atoms: _18  and  _19
REMARK   10  A    between atoms: _19  and  _20
REMARK   11  A    between atoms: _20  and  _21
REMARK   12  A    between atoms: _25  and  _27
REMARK   13  A    between atoms: _27  and  _28
REMARK   14  A    between atoms: _27  and  _30
REMARK   15  A    between atoms: _30  and  _31
REMARK   16  A    between atoms: _37  and  _39
REMARK   17  A    between atoms: _39  and  _40
REMARK   18  A    between atoms: _39  and  _42
REMARK   19  A    between atoms: _42  and  _43
REMARK   20  A    between atoms: _46  and  _48
REMARK   21  A    between atoms: _48  and  _49
REMARK   22  A    between atoms: _48  and  _51
REMARK   23  A    between atoms: _51  and  _52
REMARK   24  A    between atoms: _52  and  _54
REMARK   25  A    between atoms: _54  and  ZN_303
REMARK   26  A    between atoms: _55  and  _57
REMARK   27  A    between atoms: _57  and  _58
REMARK   28  A    between atoms: _57  and  _60
REMARK   29  A    between atoms: _60  and  _61
REMARK   30  A    between atoms: _63  and  _65
REMARK   31  A    between atoms: _65  and  _66
REMARK   32  A    between atoms: _65  and  _68
REMARK   33  A    between atoms: _68  and  _69
REMARK   34  A    between atoms: _69  and  _70
REMARK   35  A    between atoms: _73  and  _75
REMARK   36  A    between atoms: _75  and  _76
REMARK   37  A    between atoms: _75  and  _78
REMARK   38  A    between atoms: _78  and  _79
REMARK   39  A    between atoms: _79  and  _80
REMARK   40  A    between atoms: _80  and  _82
REMARK   41  A    between atoms: _82  and  ZN_303
REMARK   42  A    between atoms: _83  and  _85
REMARK   43  A    between atoms: _85  and  _86
REMARK   44  A    between atoms: _89  and  _91
REMARK   45  A    between atoms: _91  and  _92
REMARK   46  A    between atoms: _91  and  _94
REMARK   47  A    between atoms: _94  and  _95
REMARK   48  A    between atoms: _100  and  _102
REMARK   49  A    between atoms: _102  and  _103
REMARK   50  A    between atoms: _102  and  _105
REMARK   51  A    between atoms: _105  and  _106
REMARK   52  A    between atoms: _116  and  _118
REMARK   53  A    between atoms: _118  and  _119
REMARK   54  A    between atoms: _118  and  _121
REMARK   55  A    between atoms: _121  and  _122
REMARK   56  A    between atoms: _124  and  _126
REMARK   57  A    between atoms: _126  and  _127
REMARK   58  A    between atoms: _126  and  _129
REMARK   59  A    between atoms: _129  and  _130
REMARK   60  A    between atoms: _132  and  _134
REMARK   61  A    between atoms: _134  and  _135
REMARK   62  A    between atoms: _134  and  _137
REMARK   63  A    between atoms: _137  and  _138
REMARK   64  A    between atoms: _141  and  _143
REMARK   65  A    between atoms: _143  and  _144
REMARK   66  A    between atoms: _143  and  _146
REMARK   67  A    between atoms: _146  and  _147
REMARK   68  A    between atoms: _150  and  _152
REMARK   69  A    between atoms: _152  and  _153
REMARK   70  A    between atoms: _152  and  _155
REMARK   71  A    between atoms: _155  and  _156
REMARK   72  A    between atoms: _159  and  _161
REMARK   73  A    between atoms: _161  and  _162
REMARK   74  A    between atoms: _161  and  _164
REMARK   75  A    between atoms: _164  and  _165
REMARK   76  A    between atoms: _168  and  _170
REMARK   77  A    between atoms: _170  and  _171
REMARK   78  A    between atoms: _170  and  _173
REMARK   79  A    between atoms: _173  and  _174
REMARK   80  A    between atoms: _177  and  _179
REMARK   81  A    between atoms: _179  and  _180
REMARK   82  A    between atoms: _179  and  _182
REMARK   83  A    between atoms: _185  and  _187
REMARK   84  A    between atoms: _187  and  _188
REMARK   85  A    between atoms: _187  and  _190
REMARK   86  A    between atoms: _190  and  _191
REMARK   87  A    between atoms: _194  and  _196
REMARK   88  A    between atoms: _196  and  _197
REMARK   89  A    between atoms: _196  and  _199
REMARK   90  A    between atoms: _199  and  _200
REMARK   91  A    between atoms: _200  and  _201
REMARK   92  A    between atoms: _206  and  _208
REMARK   93  A    between atoms: _208  and  _209
REMARK   94  A    between atoms: _208  and  _211
REMARK   95  A    between atoms: _211  and  _212
REMARK   96  A    between atoms: _215  and  _217
REMARK   97  A    between atoms: _217  and  _218
REMARK   98  A    between atoms: _217  and  _220
REMARK   99  A    between atoms: _220  and  _221
REMARK  100  A    between atoms: _224  and  _226
REMARK  101  A    between atoms: _226  and  _227
REMARK  102  A    between atoms: _226  and  _229
REMARK  103  A    between atoms: _229  and  _230
REMARK  104  A    between atoms: _235  and  _237
REMARK  105  A    between atoms: _237  and  _238
REMARK  106  A    between atoms: _237  and  _240
REMARK  107  A    between atoms: _240  and  _241
REMARK  108  A    between atoms: _246  and  _248
REMARK  109  A    between atoms: _248  and  _249
REMARK  110  A    between atoms: _248  and  _251
REMARK  111  A    between atoms: _251  and  _252
REMARK  112  A    between atoms: _255  and  _257
REMARK  113  A    between atoms: _257  and  _258
REMARK  114  A    between atoms: _257  and  _260
REMARK  115  A    between atoms: _260  and  _261
REMARK  116  A    between atoms: _267  and  _269
REMARK  117  A    between atoms: _269  and  _270
REMARK  118  A    between atoms: _269  and  _272
REMARK  119  A    between atoms: _272  and  _273
REMARK  120  A    between atoms: _283  and  _285
REMARK  121  A    between atoms: _285  and  _286
REMARK  122  A    between atoms: _285  and  _288
REMARK  123  A    between atoms: _288  and  _289
REMARK  124  A    between atoms: _293  and  ZN_303
REMARK  125  A    between atoms: _294  and  _296
REMARK  126  A    between atoms: _296  and  _297
REMARK  127  A    between atoms: _296  and  _299
REMARK  128  A    between atoms: _299  and  _300
REMARK                            x       y       z     vdW  Elec       q    Type
REMARK                         _______ _______ _______ _____ _____    ______ ____
ROOT
ATOM      1  O   HOH     1     -14.598   3.674  26.535  0.00  0.00    +0.000 OA
ENDROOT
TORSDOF 0
REMARK  Name = ../refined-set-2016/2afx/2afx_pocket.pdb
REMARK  128 active torsions:
REMARK  status: ('A' for Active; 'I' for Inactive)
REMARK    1  A    between atoms: _1  and  _3
REMARK    2  A    between atoms: _3  and  _4
REMARK    3  A    between atoms: _3  and  _6
REMARK    4  A    between atoms: _6  and  _7
REMARK    5  A    between atoms: _12  and  _14
REMARK    6  A    between atoms: _14  and  _15
REMARK    7  A    between atoms: _14  and  _17
REMARK    8  A    between atoms: _17  and  _18
REMARK    9  A    between atoms: _18  and  _19
REMARK   10  A    between atoms: _19  and  _20
REMARK   11  A    between atoms: _20  and  _21
REMARK   12  A    between atoms: _25  and  _27
REMARK   13  A    between atoms: _27  and  _28
REMARK   14  A    between atoms: _27  and  _30
REMARK   15  A    between atoms: _30  and  _31
REMARK   16  A    between atoms: _37  and  _39
REMARK   17  A    between atoms: _39  and  _40
REMARK   18  A    between atoms: _39  and  _42
REMARK   19  A    between atoms: _42  and  _43
REMARK   20  A    between atoms: _46  and  _48
REMARK   21  A    between atoms: _48  and  _49
REMARK   22  A    between atoms: _48  and  _51
REMARK   23  A    between atoms: _51  and  _52
REMARK   24  A    between atoms: _52  and  _54
REMARK   25  A    between atoms: _54  and  ZN_303
REMARK   26  A    between atoms: _55  and  _57
REMARK   27  A    between atoms: _57  and  _58
REMARK   28  A    between atoms: _57  and  _60
REMARK   29  A    between atoms: _60  and  _61
REMARK   30  A    between atoms: _63  and  _65
REMARK   31  A    between atoms: _65  and  _66
REMARK   32  A    between atoms: _65  and  _68
REMARK   33  A    between atoms: _68  and  _69
REMARK   34  A    between atoms: _69  and  _70
REMARK   35  A    between atoms: _73  and  _75
REMARK   36  A    between atoms: _75  and  _76
REMARK   37  A    between atoms: _75  and  _78
REMARK   38  A    between atoms: _78  and  _79
REMARK   39  A    between atoms: _79  and  _80
REMARK   40  A    between atoms: _80  and  _82
REMARK   41  A    between atoms: _82  and  ZN_303
REMARK   42  A    between atoms: _83  and  _85
REMARK   43  A    between atoms: _85  and  _86
REMARK   44  A    between atoms: _89  and  _91
REMARK   45  A    between atoms: _91  and  _92
REMARK   46  A    between atoms: _91  and  _94
REMARK   47  A    between atoms: _94  and  _95
REMARK   48  A    between atoms: _100  and  _102
REMARK   49  A    between atoms: _102  and  _103
REMARK   50  A    between atoms: _102  and  _105
REMARK   51  A    between atoms: _105  and  _106
REMARK   52  A    between atoms: _116  and  _118
REMARK   53  A    between atoms: _118  and  _119
REMARK   54  A    between atoms: _118  and  _121
REMARK   55  A    between atoms: _121  and  _122
REMARK   56  A    between atoms: _124  and  _126
REMARK   57  A    between atoms: _126  and  _127
REMARK   58  A    between atoms: _126  and  _129
REMARK   59  A    between atoms: _129  and  _130
REMARK   60  A    between atoms: _132  and  _134
REMARK   61  A    between atoms: _134  and  _135
REMARK   62  A    between atoms: _134  and  _137
REMARK   63  A    between atoms: _137  and  _138
REMARK   64  A    between atoms: _141  and  _143
REMARK   65  A    between atoms: _143  and  _144
REMARK   66  A    between atoms: _143  and  _146
REMARK   67  A    between atoms: _146  and  _147
REMARK   68  A    between atoms: _150  and  _152
REMARK   69  A    between atoms: _152  and  _153
REMARK   70  A    between atoms: _152  and  _155
REMARK   71  A    between atoms: _155  and  _156
REMARK   72  A    between atoms: _159  and  _161
REMARK   73  A    between atoms: _161  and  _162
REMARK   74  A    between atoms: _161  and  _164
REMARK   75  A    between atoms: _164  and  _165
REMARK   76  A    between atoms: _168  and  _170
REMARK   77  A    between atoms: _170  and  _171
REMARK   78  A    between atoms: _170  and  _173
REMARK   79  A    between atoms: _173  and  _174
REMARK   80  A    between atoms: _177  and  _179
REMARK   81  A    between atoms: _179  and  _180
REMARK   82  A    between atoms: _179  and  _182
REMARK   83  A    between atoms: _185  and  _187
REMARK   84  A    between atoms: _187  and  _188
REMARK   85  A    between atoms: _187  and  _190
REMARK   86  A    between atoms: _190  and  _191
REMARK   87  A    between atoms: _194  and  _196
REMARK   88  A    between atoms: _196  and  _197
REMARK   89  A    between atoms: _196  and  _199
REMARK   90  A    between atoms: _199  and  _200
REMARK   91  A    between atoms: _200  and  _201
REMARK   92  A    between atoms: _206  and  _208
REMARK   93  A    between atoms: _208  and  _209
REMARK   94  A    between atoms: _208  and  _211
REMARK   95  A    between atoms: _211  and  _212
REMARK   96  A    between atoms: _215  and  _217
REMARK   97  A    between atoms: _217  and  _218
REMARK   98  A    between atoms: _217  and  _220
REMARK   99  A    between atoms: _220  and  _221
REMARK  100  A    between atoms: _224  and  _226
REMARK  101  A    between atoms: _226  and  _227
REMARK  102  A    between atoms: _226  and  _229
REMARK  103  A    between atoms: _229  and  _230
REMARK  104  A    between atoms: _235  and  _237
REMARK  105  A    between atoms: _237  and  _238
REMARK  106  A    between atoms: _237  and  _240
REMARK  107  A    between atoms: _240  and  _241
REMARK  108  A    between atoms: _246  and  _248
REMARK  109  A    between atoms: _248  and  _249
REMARK  110  A    between atoms: _248  and  _251
REMARK  111  A    between atoms: _251  and  _252
REMARK  112  A    between atoms: _255  and  _257
REMARK  113  A    between atoms: _257  and  _258
REMARK  114  A    between atoms: _257  and  _260
REMARK  115  A    between atoms: _260  and  _261
REMARK  116  A    between atoms: _267  and  _269
REMARK  117  A    between atoms: _269  and  _270
REMARK  118  A    between atoms: _269  and  _272
REMARK  119  A    between atoms: _272  and  _273
REMARK  120  A    between atoms: _283  and  _285
REMARK  121  A    between atoms: _285  and  _286
REMARK  122  A    between atoms: _285  and  _288
REMARK  123  A    between atoms: _288  and  _289
REMARK  124  A    between atoms: _293  and  ZN_303
REMARK  125  A    between atoms: _294  and  _296
REMARK  126  A    between atoms: _296  and  _297
REMARK  127  A    between atoms: _296  and  _299
REMARK  128  A    between atoms: _299  and  _300
REMARK                            x       y       z     vdW  Elec       q    Type
REMARK                         _______ _______ _______ _____ _____    ______ ____
ROOT
ATOM      1  O   HOH     1     -11.118   5.744  13.721  0.00  0.00    +0.000 OA
ENDROOT
TORSDOF 0
REMARK  Name = ../refined-set-2016/2afx/2afx_pocket.pdb
REMARK  128 active torsions:
REMARK  status: ('A' for Active; 'I' for Inactive)
REMARK    1  A    between atoms: _1  and  _3
REMARK    2  A    between atoms: _3  and  _4
REMARK    3  A    between atoms: _3  and  _6
REMARK    4  A    between atoms: _6  and  _7
REMARK    5  A    between atoms: _12  and  _14
REMARK    6  A    between atoms: _14  and  _15
REMARK    7  A    between atoms: _14  and  _17
REMARK    8  A    between atoms: _17  and  _18
REMARK    9  A    between atoms: _18  and  _19
REMARK   10  A    between atoms: _19  and  _20
REMARK   11  A    between atoms: _20  and  _21
REMARK   12  A    between atoms: _25  and  _27
REMARK   13  A    between atoms: _27  and  _28
REMARK   14  A    between atoms: _27  and  _30
REMARK   15  A    between atoms: _30  and  _31
REMARK   16  A    between atoms: _37  and  _39
REMARK   17  A    between atoms: _39  and  _40
REMARK   18  A    between atoms: _39  and  _42
REMARK   19  A    between atoms: _42  and  _43
REMARK   20  A    between atoms: _46  and  _48
REMARK   21  A    between atoms: _48  and  _49
REMARK   22  A    between atoms: _48  and  _51
REMARK   23  A    between atoms: _51  and  _52
REMARK   24  A    between atoms: _52  and  _54
REMARK   25  A    between atoms: _54  and  ZN_303
REMARK   26  A    between atoms: _55  and  _57
REMARK   27  A    between atoms: _57  and  _58
REMARK   28  A    between atoms: _57  and  _60
REMARK   29  A    between atoms: _60  and  _61
REMARK   30  A    between atoms: _63  and  _65
REMARK   31  A    between atoms: _65  and  _66
REMARK   32  A    between atoms: _65  and  _68
REMARK   33  A    between atoms: _68  and  _69
REMARK   34  A    between atoms: _69  and  _70
REMARK   35  A    between atoms: _73  and  _75
REMARK   36  A    between atoms: _75  and  _76
REMARK   37  A    between atoms: _75  and  _78
REMARK   38  A    between atoms: _78  and  _79
REMARK   39  A    between atoms: _79  and  _80
REMARK   40  A    between atoms: _80  and  _82
REMARK   41  A    between atoms: _82  and  ZN_303
REMARK   42  A    between atoms: _83  and  _85
REMARK   43  A    between atoms: _85  and  _86
REMARK   44  A    between atoms: _89  and  _91
REMARK   45  A    between atoms: _91  and  _92
REMARK   46  A    between atoms: _91  and  _94
REMARK   47  A    between atoms: _94  and  _95
REMARK   48  A    between atoms: _100  and  _102
REMARK   49  A    between atoms: _102  and  _103
REMARK   50  A    between atoms: _102  and  _105
REMARK   51  A    between atoms: _105  and  _106
REMARK   52  A    between atoms: _116  and  _118
REMARK   53  A    between atoms: _118  and  _119
REMARK   54  A    between atoms: _118  and  _121
REMARK   55  A    between atoms: _121  and  _122
REMARK   56  A    between atoms: _124  and  _126
REMARK   57  A    between atoms: _126  and  _127
REMARK   58  A    between atoms: _126  and  _129
REMARK   59  A    between atoms: _129  and  _130
REMARK   60  A    between atoms: _132  and  _134
REMARK   61  A    between atoms: _134  and  _135
REMARK   62  A    between atoms: _134  and  _137
REMARK   63  A    between atoms: _137  and  _138
REMARK   64  A    between atoms: _141  and  _143
REMARK   65  A    between atoms: _143  and  _144
REMARK   66  A    between atoms: _143  and  _146
REMARK   67  A    between atoms: _146  and  _147
REMARK   68  A    between atoms: _150  and  _152
REMARK   69  A    between atoms: _152  and  _153
REMARK   70  A    between atoms: _152  and  _155
REMARK   71  A    between atoms: _155  and  _156
REMARK   72  A    between atoms: _159  and  _161
REMARK   73  A    between atoms: _161  and  _162
REMARK   74  A    between atoms: _161  and  _164
REMARK   75  A    between atoms: _164  and  _165
REMARK   76  A    between atoms: _168  and  _170
REMARK   77  A    between atoms: _170  and  _171
REMARK   78  A    between atoms: _170  and  _173
REMARK   79  A    between atoms: _173  and  _174
REMARK   80  A    between atoms: _177  and  _179
REMARK   81  A    between atoms: _179  and  _180
REMARK   82  A    between atoms: _179  and  _182
REMARK   83  A    between atoms: _185  and  _187
REMARK   84  A    between atoms: _187  and  _188
REMARK   85  A    between atoms: _187  and  _190
REMARK   86  A    between atoms: _190  and  _191
REMARK   87  A    between atoms: _194  and  _196
REMARK   88  A    between atoms: _196  and  _197
REMARK   89  A    between atoms: _196  and  _199
REMARK   90  A    between atoms: _199  and  _200
REMARK   91  A    between atoms: _200  and  _201
REMARK   92  A    between atoms: _206  and  _208
REMARK   93  A    between atoms: _208  and  _209
REMARK   94  A    between atoms: _208  and  _211
REMARK   95  A    between atoms: _211  and  _212
REMARK   96  A    between atoms: _215  and  _217
REMARK   97  A    between atoms: _217  and  _218
REMARK   98  A    between atoms: _217  and  _220
REMARK   99  A    between atoms: _220  and  _221
REMARK  100  A    between atoms: _224  and  _226
REMARK  101  A    between atoms: _226  and  _227
REMARK  102  A    between atoms: _226  and  _229
REMARK  103  A    between atoms: _229  and  _230
REMARK  104  A    between atoms: _235  and  _237
REMARK  105  A    between atoms: _237  and  _238
REMARK  106  A    between atoms: _237  and  _240
REMARK  107  A    between atoms: _240  and  _241
REMARK  108  A    between atoms: _246  and  _248
REMARK  109  A    between atoms: _248  and  _249
REMARK  110  A    between atoms: _248  and  _251
REMARK  111  A    between atoms: _251  and  _252
REMARK  112  A    between atoms: _255  and  _257
REMARK  113  A    between atoms: _257  and  _258
REMARK  114  A    between atoms: _257  and  _260
REMARK  115  A    between atoms: _260  and  _261
REMARK  116  A    between atoms: _267  and  _269
REMARK  117  A    between atoms: _269  and  _270
REMARK  118  A    between atoms: _269  and  _272
REMARK  119  A    between atoms: _272  and  _273
REMARK  120  A    between atoms: _283  and  _285
REMARK  121  A    between atoms: _285  and  _286
REMARK  122  A    between atoms: _285  and  _288
REMARK  123  A    between atoms: _288  and  _289
REMARK  124  A    between atoms: _293  and  ZN_303
REMARK  125  A    between atoms: _294  and  _296
REMARK  126  A    between atoms: _296  and  _297
REMARK  127  A    between atoms: _296  and  _299
REMARK  128  A    between atoms: _299  and  _300
REMARK                            x       y       z     vdW  Elec       q    Type
REMARK                         _______ _______ _______ _____ _____    ______ ____
ROOT
ATOM      1  O   HOH     1      -9.702   1.684  29.126  0.00  0.00    +0.000 OA
ENDROOT
TORSDOF 0
REMARK  Name = ../refined-set-2016/2afx/2afx_pocket.pdb
REMARK  128 active torsions:
REMARK  status: ('A' for Active; 'I' for Inactive)
REMARK    1  A    between atoms: _1  and  _3
REMARK    2  A    between atoms: _3  and  _4
REMARK    3  A    between atoms: _3  and  _6
REMARK    4  A    between atoms: _6  and  _7
REMARK    5  A    between atoms: _12  and  _14
REMARK    6  A    between atoms: _14  and  _15
REMARK    7  A    between atoms: _14  and  _17
REMARK    8  A    between atoms: _17  and  _18
REMARK    9  A    between atoms: _18  and  _19
REMARK   10  A    between atoms: _19  and  _20
REMARK   11  A    between atoms: _20  and  _21
REMARK   12  A    between atoms: _25  and  _27
REMARK   13  A    between atoms: _27  and  _28
REMARK   14  A    between atoms: _27  and  _30
REMARK   15  A    between atoms: _30  and  _31
REMARK   16  A    between atoms: _37  and  _39
REMARK   17  A    between atoms: _39  and  _40
REMARK   18  A    between atoms: _39  and  _42
REMARK   19  A    between atoms: _42  and  _43
REMARK   20  A    between atoms: _46  and  _48
REMARK   21  A    between atoms: _48  and  _49
REMARK   22  A    between atoms: _48  and  _51
REMARK   23  A    between atoms: _51  and  _52
REMARK   24  A    between atoms: _52  and  _54
REMARK   25  A    between atoms: _54  and  ZN_303
REMARK   26  A    between atoms: _55  and  _57
REMARK   27  A    between atoms: _57  and  _58
REMARK   28  A    between atoms: _57  and  _60
REMARK   29  A    between atoms: _60  and  _61
REMARK   30  A    between atoms: _63  and  _65
REMARK   31  A    between atoms: _65  and  _66
REMARK   32  A    between atoms: _65  and  _68
REMARK   33  A    between atoms: _68  and  _69
REMARK   34  A    between atoms: _69  and  _70
REMARK   35  A    between atoms: _73  and  _75
REMARK   36  A    between atoms: _75  and  _76
REMARK   37  A    between atoms: _75  and  _78
REMARK   38  A    between atoms: _78  and  _79
REMARK   39  A    between atoms: _79  and  _80
REMARK   40  A    between atoms: _80  and  _82
REMARK   41  A    between atoms: _82  and  ZN_303
REMARK   42  A    between atoms: _83  and  _85
REMARK   43  A    between atoms: _85  and  _86
REMARK   44  A    between atoms: _89  and  _91
REMARK   45  A    between atoms: _91  and  _92
REMARK   46  A    between atoms: _91  and  _94
REMARK   47  A    between atoms: _94  and  _95
REMARK   48  A    between atoms: _100  and  _102
REMARK   49  A    between atoms: _102  and  _103
REMARK   50  A    between atoms: _102  and  _105
REMARK   51  A    between atoms: _105  and  _106
REMARK   52  A    between atoms: _116  and  _118
REMARK   53  A    between atoms: _118  and  _119
REMARK   54  A    between atoms: _118  and  _121
REMARK   55  A    between atoms: _121  and  _122
REMARK   56  A    between atoms: _124  and  _126
REMARK   57  A    between atoms: _126  and  _127
REMARK   58  A    between atoms: _126  and  _129
REMARK   59  A    between atoms: _129  and  _130
REMARK   60  A    between atoms: _132  and  _134
REMARK   61  A    between atoms: _134  and  _135
REMARK   62  A    between atoms: _134  and  _137
REMARK   63  A    between atoms: _137  and  _138
REMARK   64  A    between atoms: _141  and  _143
REMARK   65  A    between atoms: _143  and  _144
REMARK   66  A    between atoms: _143  and  _146
REMARK   67  A    between atoms: _146  and  _147
REMARK   68  A    between atoms: _150  and  _152
REMARK   69  A    between atoms: _152  and  _153
REMARK   70  A    between atoms: _152  and  _155
REMARK   71  A    between atoms: _155  and  _156
REMARK   72  A    between atoms: _159  and  _161
REMARK   73  A    between atoms: _161  and  _162
REMARK   74  A    between atoms: _161  and  _164
REMARK   75  A    between atoms: _164  and  _165
REMARK   76  A    between atoms: _168  and  _170
REMARK   77  A    between atoms: _170  and  _171
REMARK   78  A    between atoms: _170  and  _173
REMARK   79  A    between atoms: _173  and  _174
REMARK   80  A    between atoms: _177  and  _179
REMARK   81  A    between atoms: _179  and  _180
REMARK   82  A    between atoms: _179  and  _182
REMARK   83  A    between atoms: _185  and  _187
REMARK   84  A    between atoms: _187  and  _188
REMARK   85  A    between atoms: _187  and  _190
REMARK   86  A    between atoms: _190  and  _191
REMARK   87  A    between atoms: _194  and  _196
REMARK   88  A    between atoms: _196  and  _197
REMARK   89  A    between atoms: _196  and  _199
REMARK   90  A    between atoms: _199  and  _200
REMARK   91  A    between atoms: _200  and  _201
REMARK   92  A    between atoms: _206  and  _208
REMARK   93  A    between atoms: _208  and  _209
REMARK   94  A    between atoms: _208  and  _211
REMARK   95  A    between atoms: _211  and  _212
REMARK   96  A    between atoms: _215  and  _217
REMARK   97  A    between atoms: _217  and  _218
REMARK   98  A    between atoms: _217  and  _220
REMARK   99  A    between atoms: _220  and  _221
REMARK  100  A    between atoms: _224  and  _226
REMARK  101  A    between atoms: _226  and  _227
REMARK  102  A    between atoms: _226  and  _229
REMARK  103  A    between atoms: _229  and  _230
REMARK  104  A    between atoms: _235  and  _237
REMARK  105  A    between atoms: _237  and  _238
REMARK  106  A    between atoms: _237  and  _240
REMARK  107  A    between atoms: _240  and  _241
REMARK  108  A    between atoms: _246  and  _248
REMARK  109  A    between atoms: _248  and  _249
REMARK  110  A    between atoms: _248  and  _251
REMARK  111  A    between atoms: _251  and  _252
REMARK  112  A    between atoms: _255  and  _257
REMARK  113  A    between atoms: _257  and  _258
REMARK  114  A    between atoms: _257  and  _260
REMARK  115  A    between atoms: _260  and  _261
REMARK  116  A    between atoms: _267  and  _269
REMARK  117  A    between atoms: _269  and  _270
REMARK  118  A    between atoms: _269  and  _272
REMARK  119  A    between atoms: _272  and  _273
REMARK  120  A    between atoms: _283  and  _285
REMARK  121  A    between atoms: _285  and  _286
REMARK  122  A    between atoms: _285  and  _288
REMARK  123  A    between atoms: _288  and  _289
REMARK  124  A    between atoms: _293  and  ZN_303
REMARK  125  A    between atoms: _294  and  _296
REMARK  126  A    between atoms: _296  and  _297
REMARK  127  A    between atoms: _296  and  _299
REMARK  128  A    between atoms: _299  and  _300
REMARK                            x       y       z     vdW  Elec       q    Type
REMARK                         _______ _______ _______ _____ _____    ______ ____
ROOT
ATOM      1  O   HOH     1     -11.534   8.878  23.260  0.00  0.00    +0.000 OA
ENDROOT
TORSDOF 0
