REMARK  Name = ../refined-set-2016/5e2p/5e2p_pocket.pdb
REMARK  235 active torsions:
REMARK  status: ('A' for Active; 'I' for Inactive)
REMARK    1  A    between atoms: _1  and  _5
REMARK    2  A    between atoms: _5  and  _6
REMARK    3  A    between atoms: _5  and  _8
REMARK    4  A    between atoms: _8  and  _9
REMARK    5  A    between atoms: _12  and  _14
REMARK    6  A    between atoms: _14  and  _15
REMARK    7  A    between atoms: _14  and  _17
REMARK    8  A    between atoms: _20  and  _22
REMARK    9  A    between atoms: _22  and  _23
REMARK   10  A    between atoms: _22  and  _25
REMARK   11  A    between atoms: _25  and  _26
REMARK   12  A    between atoms: _29  and  _31
REMARK   13  A    between atoms: _31  and  _32
REMARK   14  A    between atoms: _31  and  _34
REMARK   15  A    between atoms: _34  and  _35
REMARK   16  A    between atoms: _38  and  _40
REMARK   17  A    between atoms: _40  and  _41
REMARK   18  A    between atoms: _40  and  _43
REMARK   19  A    between atoms: _43  and  _44
REMARK   20  A    between atoms: _47  and  _49
REMARK   21  A    between atoms: _49  and  _50
REMARK   22  A    between atoms: _49  and  _52
REMARK   23  A    between atoms: _52  and  _53
REMARK   24  A    between atoms: _56  and  _58
REMARK   25  A    between atoms: _58  and  _59
REMARK   26  A    between atoms: _58  and  _61
REMARK   27  A    between atoms: _61  and  _62
REMARK   28  A    between atoms: _62  and  _63
REMARK   29  A    between atoms: _68  and  _70
REMARK   30  A    between atoms: _70  and  _71
REMARK   31  A    between atoms: _70  and  _73
REMARK   32  A    between atoms: _73  and  _74
REMARK   33  A    between atoms: _74  and  _75
REMARK   34  A    between atoms: _75  and  _76
REMARK   35  A    between atoms: _85  and  _87
REMARK   36  A    between atoms: _87  and  _88
REMARK   37  A    between atoms: _87  and  _90
REMARK   38  A    between atoms: _90  and  _91
REMARK   39  A    between atoms: _96  and  _98
REMARK   40  A    between atoms: _98  and  _99
REMARK   41  A    between atoms: _98  and  _101
REMARK   42  A    between atoms: _101  and  _102
REMARK   43  A    between atoms: _105  and  _107
REMARK   44  A    between atoms: _107  and  _108
REMARK   45  A    between atoms: _107  and  _110
REMARK   46  A    between atoms: _110  and  _111
REMARK   47  A    between atoms: _111  and  _146
REMARK   48  A    between atoms: _112  and  _114
REMARK   49  A    between atoms: _114  and  _115
REMARK   50  A    between atoms: _117  and  _119
REMARK   51  A    between atoms: _119  and  _120
REMARK   52  A    between atoms: _123  and  _125
REMARK   53  A    between atoms: _125  and  _126
REMARK   54  A    between atoms: _129  and  _131
REMARK   55  A    between atoms: _131  and  _132
REMARK   56  A    between atoms: _131  and  _134
REMARK   57  A    between atoms: _134  and  _135
REMARK   58  A    between atoms: _140  and  _142
REMARK   59  A    between atoms: _142  and  _143
REMARK   60  A    between atoms: _142  and  _145
REMARK   61  A    between atoms: _145  and  _146
REMARK   62  A    between atoms: _147  and  _149
REMARK   63  A    between atoms: _149  and  _150
REMARK   64  A    between atoms: _149  and  _152
REMARK   65  A    between atoms: _152  and  _153
REMARK   66  A    between atoms: _159  and  _161
REMARK   67  A    between atoms: _161  and  _162
REMARK   68  A    between atoms: _161  and  _164
REMARK   69  A    between atoms: _164  and  _165
REMARK   70  A    between atoms: _170  and  _171
REMARK   71  A    between atoms: _173  and  _175
REMARK   72  A    between atoms: _175  and  _176
REMARK   73  A    between atoms: _178  and  _180
REMARK   74  A    between atoms: _180  and  _181
REMARK   75  A    between atoms: _180  and  _183
REMARK   76  A    between atoms: _186  and  _188
REMARK   77  A    between atoms: _188  and  _189
REMARK   78  A    between atoms: _192  and  _194
REMARK   79  A    between atoms: _194  and  _195
REMARK   80  A    between atoms: _194  and  _197
REMARK   81  A    between atoms: _197  and  _198
REMARK   82  A    between atoms: _201  and  _203
REMARK   83  A    between atoms: _203  and  _204
REMARK   84  A    between atoms: _203  and  _206
REMARK   85  A    between atoms: _209  and  _211
REMARK   86  A    between atoms: _211  and  _212
REMARK   87  A    between atoms: _211  and  _214
REMARK   88  A    between atoms: _214  and  _215
REMARK   89  A    between atoms: _225  and  _227
REMARK   90  A    between atoms: _227  and  _228
REMARK   91  A    between atoms: _230  and  _232
REMARK   92  A    between atoms: _232  and  _233
REMARK   93  A    between atoms: _232  and  _235
REMARK   94  A    between atoms: _235  and  _236
REMARK   95  A    between atoms: _241  and  _242
REMARK   96  A    between atoms: _244  and  _246
REMARK   97  A    between atoms: _246  and  _247
REMARK   98  A    between atoms: _246  and  _249
REMARK   99  A    between atoms: _249  and  _250
REMARK  100  A    between atoms: _250  and  _251
REMARK  101  A    between atoms: _251  and  _252
REMARK  102  A    between atoms: _252  and  _253
REMARK  103  A    between atoms: _257  and  _259
REMARK  104  A    between atoms: _259  and  _260
REMARK  105  A    between atoms: _259  and  _262
REMARK  106  A    between atoms: _262  and  _263
REMARK  107  A    between atoms: _266  and  _268
REMARK  108  A    between atoms: _268  and  _269
REMARK  109  A    between atoms: _268  and  _271
REMARK  110  A    between atoms: _271  and  _272
REMARK  111  A    between atoms: _275  and  _277
REMARK  112  A    between atoms: _277  and  _278
REMARK  113  A    between atoms: _277  and  _280
REMARK  114  A    between atoms: _280  and  _281
REMARK  115  A    between atoms: _281  and  _282
REMARK  116  A    between atoms: _282  and  _283
REMARK  117  A    between atoms: _283  and  _284
REMARK  118  A    between atoms: _288  and  _290
REMARK  119  A    between atoms: _290  and  _291
REMARK  120  A    between atoms: _290  and  _293
REMARK  121  A    between atoms: _293  and  _294
REMARK  122  A    between atoms: _297  and  _299
REMARK  123  A    between atoms: _299  and  _300
REMARK  124  A    between atoms: _299  and  _302
REMARK  125  A    between atoms: _302  and  _303
REMARK  126  A    between atoms: _308  and  _309
REMARK  127  A    between atoms: _311  and  _313
REMARK  128  A    between atoms: _313  and  _314
REMARK  129  A    between atoms: _313  and  _316
REMARK  130  A    between atoms: _316  and  _317
REMARK  131  A    between atoms: _320  and  _322
REMARK  132  A    between atoms: _322  and  _323
REMARK  133  A    between atoms: _322  and  _325
REMARK  134  A    between atoms: _327  and  _329
REMARK  135  A    between atoms: _329  and  _330
REMARK  136  A    between atoms: _333  and  _335
REMARK  137  A    between atoms: _335  and  _336
REMARK  138  A    between atoms: _335  and  _338
REMARK  139  A    between atoms: _338  and  _339
REMARK  140  A    between atoms: _339  and  _340
REMARK  141  A    between atoms: _340  and  _341
REMARK  142  A    between atoms: _341  and  _342
REMARK  143  A    between atoms: _346  and  _348
REMARK  144  A    between atoms: _348  and  _349
REMARK  145  A    between atoms: _348  and  _351
REMARK  146  A    between atoms: _351  and  _352
REMARK  147  A    between atoms: _355  and  _357
REMARK  148  A    between atoms: _357  and  _358
REMARK  149  A    between atoms: _361  and  _363
REMARK  150  A    between atoms: _363  and  _364
REMARK  151  A    between atoms: _363  and  _366
REMARK  152  A    between atoms: _366  and  _367
REMARK  153  A    between atoms: _367  and  _490
REMARK  154  A    between atoms: _368  and  _370
REMARK  155  A    between atoms: _370  and  _371
REMARK  156  A    between atoms: _370  and  _373
REMARK  157  A    between atoms: _373  and  _374
REMARK  158  A    between atoms: _374  and  _375
REMARK  159  A    between atoms: _375  and  _376
REMARK  160  A    between atoms: _376  and  _377
REMARK  161  A    between atoms: _381  and  _383
REMARK  162  A    between atoms: _383  and  _384
REMARK  163  A    between atoms: _386  and  _388
REMARK  164  A    between atoms: _388  and  _389
REMARK  165  A    between atoms: _388  and  _391
REMARK  166  A    between atoms: _391  and  _392
REMARK  167  A    between atoms: _395  and  _397
REMARK  168  A    between atoms: _397  and  _398
REMARK  169  A    between atoms: _397  and  _400
REMARK  170  A    between atoms: _400  and  _401
REMARK  171  A    between atoms: _403  and  _405
REMARK  172  A    between atoms: _405  and  _406
REMARK  173  A    between atoms: _408  and  _410
REMARK  174  A    between atoms: _410  and  _411
REMARK  175  A    between atoms: _413  and  _415
REMARK  176  A    between atoms: _415  and  _416
REMARK  177  A    between atoms: _415  and  _418
REMARK  178  A    between atoms: _418  and  _419
REMARK  179  A    between atoms: _422  and  _424
REMARK  180  A    between atoms: _424  and  _425
REMARK  181  A    between atoms: _424  and  _427
REMARK  182  A    between atoms: _427  and  _428
REMARK  183  A    between atoms: _431  and  _433
REMARK  184  A    between atoms: _433  and  _434
REMARK  185  A    between atoms: _433  and  _436
REMARK  186  A    between atoms: _436  and  _437
REMARK  187  A    between atoms: _440  and  _442
REMARK  188  A    between atoms: _442  and  _443
REMARK  189  A    between atoms: _442  and  _445
REMARK  190  A    between atoms: _445  and  _446
REMARK  191  A    between atoms: _448  and  _450
REMARK  192  A    between atoms: _450  and  _451
REMARK  193  A    between atoms: _450  and  _453
REMARK  194  A    between atoms: _453  and  _454
REMARK  195  A    between atoms: _464  and  _466
REMARK  196  A    between atoms: _466  and  _467
REMARK  197  A    between atoms: _469  and  _471
REMARK  198  A    between atoms: _471  and  _472
REMARK  199  A    between atoms: _471  and  _474
REMARK  200  A    between atoms: _474  and  _475
REMARK  201  A    between atoms: _475  and  _476
REMARK  202  A    between atoms: _479  and  _481
REMARK  203  A    between atoms: _481  and  _482
REMARK  204  A    between atoms: _484  and  _486
REMARK  205  A    between atoms: _486  and  _487
REMARK  206  A    between atoms: _486  and  _489
REMARK  207  A    between atoms: _489  and  _490
REMARK  208  A    between atoms: _491  and  _493
REMARK  209  A    between atoms: _493  and  _494
REMARK  210  A    between atoms: _497  and  _499
REMARK  211  A    between atoms: _499  and  _500
REMARK  212  A    between atoms: _499  and  _502
REMARK  213  A    between atoms: _502  and  _503
REMARK  214  A    between atoms: _503  and  _504
REMARK  215  A    between atoms: _509  and  _511
REMARK  216  A    between atoms: _511  and  _512
REMARK  217  A    between atoms: _511  and  _514
REMARK  218  A    between atoms: _514  and  _515
REMARK  219  A    between atoms: _515  and  _516
REMARK  220  A    between atoms: _516  and  _517
REMARK  221  A    between atoms: _527  and  _528
REMARK  222  A    between atoms: _533  and  _535
REMARK  223  A    between atoms: _535  and  _536
REMARK  224  A    between atoms: _538  and  _540
REMARK  225  A    between atoms: _540  and  _541
REMARK  226  A    between atoms: _540  and  _543
REMARK  227  A    between atoms: _546  and  _548
REMARK  228  A    between atoms: _548  and  _549
REMARK  229  A    between atoms: _548  and  _551
REMARK  230  A    between atoms: _551  and  _552
REMARK  231  A    between atoms: _557  and  _558
REMARK  232  A    between atoms: _560  and  _562
REMARK  233  A    between atoms: _562  and  _563
REMARK  234  A    between atoms: _562  and  _565
REMARK  235  A    between atoms: _565  and  _566
REMARK                            x       y       z     vdW  Elec       q    Type
REMARK                         _______ _______ _______ _____ _____    ______ ____
ROOT
ATOM      1  C   ILE A   1      42.043  -9.183  33.598  0.00  0.00    +0.202 C 
ATOM      2  O   ILE A   1      43.127  -8.812  34.037  0.00  0.00    -0.277 OA
ATOM      3  N   VAL A   2      41.411  -8.548  32.620  0.00  0.00    -0.301 N 
ATOM      4  H   VAL A   2      40.483  -8.908  32.319  0.00  0.00    +0.150 HD
ENDROOT
BRANCH   1   5
ATOM      5  CA  ILE A   1      41.317 -10.373  34.241  0.00  0.00    +0.013 C 
BRANCH   5   6
ATOM      6  N   ILE A   1      42.203 -11.534  34.218  0.00  0.00    +0.387 N 
ATOM      7  H1  ILE A   1      43.069 -11.318  34.752  0.00  0.00    -0.089 HD
ATOM      8  H2  ILE A   1      41.720 -12.346  34.652  0.00  0.00    -0.089 HD
ATOM      9  H3  ILE A   1      42.449 -11.761  33.233  0.00  0.00    -0.089 HD
ENDBRANCH   5   6
BRANCH   5  10
ATOM     10  CB  ILE A   1      40.821 -10.027  35.705  0.00  0.00    -0.011 C 
ATOM     11  CG2 ILE A   1      39.935  -8.734  35.754  0.00  0.00    -0.002 C 
BRANCH  10  12
ATOM     12  CG1 ILE A   1      40.102 -11.206  36.408  0.00  0.00    -0.002 C 
ATOM     13  CD1 ILE A   1      38.728 -11.637  35.879  0.00  0.00    -0.000 C 
ENDBRANCH  10  12
ENDBRANCH   5  10
ENDBRANCH   1   5
BRANCH   3  14
ATOM     14  CA  VAL A   2      41.955  -7.355  31.933  0.00  0.00    +0.137 C 
BRANCH  14  15
ATOM     15  CB  VAL A   2      41.511  -7.298  30.428  0.00  0.00    +0.026 C 
ATOM     16  CG2 VAL A   2      41.786  -8.611  29.703  0.00  0.00    +0.002 C 
ATOM     17  CG1 VAL A   2      42.173  -6.131  29.692  0.00  0.00    +0.002 C 
ENDBRANCH  14  15
BRANCH  14  18
ATOM     18  C   VAL A   2      41.427  -6.141  32.697  0.00  0.00    +0.227 C 
ATOM     19  O   VAL A   2      40.245  -6.103  33.017  0.00  0.00    -0.286 OA
ENDBRANCH  14  18
ENDBRANCH   3  14
TORSDOF 7
REMARK  Name = ../refined-set-2016/5e2p/5e2p_pocket.pdb
REMARK  235 active torsions:
REMARK  status: ('A' for Active; 'I' for Inactive)
REMARK    1  A    between atoms: _1  and  _5
REMARK    2  A    between atoms: _5  and  _6
REMARK    3  A    between atoms: _5  and  _8
REMARK    4  A    between atoms: _8  and  _9
REMARK    5  A    between atoms: _12  and  _14
REMARK    6  A    between atoms: _14  and  _15
REMARK    7  A    between atoms: _14  and  _17
REMARK    8  A    between atoms: _20  and  _22
REMARK    9  A    between atoms: _22  and  _23
REMARK   10  A    between atoms: _22  and  _25
REMARK   11  A    between atoms: _25  and  _26
REMARK   12  A    between atoms: _29  and  _31
REMARK   13  A    between atoms: _31  and  _32
REMARK   14  A    between atoms: _31  and  _34
REMARK   15  A    between atoms: _34  and  _35
REMARK   16  A    between atoms: _38  and  _40
REMARK   17  A    between atoms: _40  and  _41
REMARK   18  A    between atoms: _40  and  _43
REMARK   19  A    between atoms: _43  and  _44
REMARK   20  A    between atoms: _47  and  _49
REMARK   21  A    between atoms: _49  and  _50
REMARK   22  A    between atoms: _49  and  _52
REMARK   23  A    between atoms: _52  and  _53
REMARK   24  A    between atoms: _56  and  _58
REMARK   25  A    between atoms: _58  and  _59
REMARK   26  A    between atoms: _58  and  _61
REMARK   27  A    between atoms: _61  and  _62
REMARK   28  A    between atoms: _62  and  _63
REMARK   29  A    between atoms: _68  and  _70
REMARK   30  A    between atoms: _70  and  _71
REMARK   31  A    between atoms: _70  and  _73
REMARK   32  A    between atoms: _73  and  _74
REMARK   33  A    between atoms: _74  and  _75
REMARK   34  A    between atoms: _75  and  _76
REMARK   35  A    between atoms: _85  and  _87
REMARK   36  A    between atoms: _87  and  _88
REMARK   37  A    between atoms: _87  and  _90
REMARK   38  A    between atoms: _90  and  _91
REMARK   39  A    between atoms: _96  and  _98
REMARK   40  A    between atoms: _98  and  _99
REMARK   41  A    between atoms: _98  and  _101
REMARK   42  A    between atoms: _101  and  _102
REMARK   43  A    between atoms: _105  and  _107
REMARK   44  A    between atoms: _107  and  _108
REMARK   45  A    between atoms: _107  and  _110
REMARK   46  A    between atoms: _110  and  _111
REMARK   47  A    between atoms: _111  and  _146
REMARK   48  A    between atoms: _112  and  _114
REMARK   49  A    between atoms: _114  and  _115
REMARK   50  A    between atoms: _117  and  _119
REMARK   51  A    between atoms: _119  and  _120
REMARK   52  A    between atoms: _123  and  _125
REMARK   53  A    between atoms: _125  and  _126
REMARK   54  A    between atoms: _129  and  _131
REMARK   55  A    between atoms: _131  and  _132
REMARK   56  A    between atoms: _131  and  _134
REMARK   57  A    between atoms: _134  and  _135
REMARK   58  A    between atoms: _140  and  _142
REMARK   59  A    between atoms: _142  and  _143
REMARK   60  A    between atoms: _142  and  _145
REMARK   61  A    between atoms: _145  and  _146
REMARK   62  A    between atoms: _147  and  _149
REMARK   63  A    between atoms: _149  and  _150
REMARK   64  A    between atoms: _149  and  _152
REMARK   65  A    between atoms: _152  and  _153
REMARK   66  A    between atoms: _159  and  _161
REMARK   67  A    between atoms: _161  and  _162
REMARK   68  A    between atoms: _161  and  _164
REMARK   69  A    between atoms: _164  and  _165
REMARK   70  A    between atoms: _170  and  _171
REMARK   71  A    between atoms: _173  and  _175
REMARK   72  A    between atoms: _175  and  _176
REMARK   73  A    between atoms: _178  and  _180
REMARK   74  A    between atoms: _180  and  _181
REMARK   75  A    between atoms: _180  and  _183
REMARK   76  A    between atoms: _186  and  _188
REMARK   77  A    between atoms: _188  and  _189
REMARK   78  A    between atoms: _192  and  _194
REMARK   79  A    between atoms: _194  and  _195
REMARK   80  A    between atoms: _194  and  _197
REMARK   81  A    between atoms: _197  and  _198
REMARK   82  A    between atoms: _201  and  _203
REMARK   83  A    between atoms: _203  and  _204
REMARK   84  A    between atoms: _203  and  _206
REMARK   85  A    between atoms: _209  and  _211
REMARK   86  A    between atoms: _211  and  _212
REMARK   87  A    between atoms: _211  and  _214
REMARK   88  A    between atoms: _214  and  _215
REMARK   89  A    between atoms: _225  and  _227
REMARK   90  A    between atoms: _227  and  _228
REMARK   91  A    between atoms: _230  and  _232
REMARK   92  A    between atoms: _232  and  _233
REMARK   93  A    between atoms: _232  and  _235
REMARK   94  A    between atoms: _235  and  _236
REMARK   95  A    between atoms: _241  and  _242
REMARK   96  A    between atoms: _244  and  _246
REMARK   97  A    between atoms: _246  and  _247
REMARK   98  A    between atoms: _246  and  _249
REMARK   99  A    between atoms: _249  and  _250
REMARK  100  A    between atoms: _250  and  _251
REMARK  101  A    between atoms: _251  and  _252
REMARK  102  A    between atoms: _252  and  _253
REMARK  103  A    between atoms: _257  and  _259
REMARK  104  A    between atoms: _259  and  _260
REMARK  105  A    between atoms: _259  and  _262
REMARK  106  A    between atoms: _262  and  _263
REMARK  107  A    between atoms: _266  and  _268
REMARK  108  A    between atoms: _268  and  _269
REMARK  109  A    between atoms: _268  and  _271
REMARK  110  A    between atoms: _271  and  _272
REMARK  111  A    between atoms: _275  and  _277
REMARK  112  A    between atoms: _277  and  _278
REMARK  113  A    between atoms: _277  and  _280
REMARK  114  A    between atoms: _280  and  _281
REMARK  115  A    between atoms: _281  and  _282
REMARK  116  A    between atoms: _282  and  _283
REMARK  117  A    between atoms: _283  and  _284
REMARK  118  A    between atoms: _288  and  _290
REMARK  119  A    between atoms: _290  and  _291
REMARK  120  A    between atoms: _290  and  _293
REMARK  121  A    between atoms: _293  and  _294
REMARK  122  A    between atoms: _297  and  _299
REMARK  123  A    between atoms: _299  and  _300
REMARK  124  A    between atoms: _299  and  _302
REMARK  125  A    between atoms: _302  and  _303
REMARK  126  A    between atoms: _308  and  _309
REMARK  127  A    between atoms: _311  and  _313
REMARK  128  A    between atoms: _313  and  _314
REMARK  129  A    between atoms: _313  and  _316
REMARK  130  A    between atoms: _316  and  _317
REMARK  131  A    between atoms: _320  and  _322
REMARK  132  A    between atoms: _322  and  _323
REMARK  133  A    between atoms: _322  and  _325
REMARK  134  A    between atoms: _327  and  _329
REMARK  135  A    between atoms: _329  and  _330
REMARK  136  A    between atoms: _333  and  _335
REMARK  137  A    between atoms: _335  and  _336
REMARK  138  A    between atoms: _335  and  _338
REMARK  139  A    between atoms: _338  and  _339
REMARK  140  A    between atoms: _339  and  _340
REMARK  141  A    between atoms: _340  and  _341
REMARK  142  A    between atoms: _341  and  _342
REMARK  143  A    between atoms: _346  and  _348
REMARK  144  A    between atoms: _348  and  _349
REMARK  145  A    between atoms: _348  and  _351
REMARK  146  A    between atoms: _351  and  _352
REMARK  147  A    between atoms: _355  and  _357
REMARK  148  A    between atoms: _357  and  _358
REMARK  149  A    between atoms: _361  and  _363
REMARK  150  A    between atoms: _363  and  _364
REMARK  151  A    between atoms: _363  and  _366
REMARK  152  A    between atoms: _366  and  _367
REMARK  153  A    between atoms: _367  and  _490
REMARK  154  A    between atoms: _368  and  _370
REMARK  155  A    between atoms: _370  and  _371
REMARK  156  A    between atoms: _370  and  _373
REMARK  157  A    between atoms: _373  and  _374
REMARK  158  A    between atoms: _374  and  _375
REMARK  159  A    between atoms: _375  and  _376
REMARK  160  A    between atoms: _376  and  _377
REMARK  161  A    between atoms: _381  and  _383
REMARK  162  A    between atoms: _383  and  _384
REMARK  163  A    between atoms: _386  and  _388
REMARK  164  A    between atoms: _388  and  _389
REMARK  165  A    between atoms: _388  and  _391
REMARK  166  A    between atoms: _391  and  _392
REMARK  167  A    between atoms: _395  and  _397
REMARK  168  A    between atoms: _397  and  _398
REMARK  169  A    between atoms: _397  and  _400
REMARK  170  A    between atoms: _400  and  _401
REMARK  171  A    between atoms: _403  and  _405
REMARK  172  A    between atoms: _405  and  _406
REMARK  173  A    between atoms: _408  and  _410
REMARK  174  A    between atoms: _410  and  _411
REMARK  175  A    between atoms: _413  and  _415
REMARK  176  A    between atoms: _415  and  _416
REMARK  177  A    between atoms: _415  and  _418
REMARK  178  A    between atoms: _418  and  _419
REMARK  179  A    between atoms: _422  and  _424
REMARK  180  A    between atoms: _424  and  _425
REMARK  181  A    between atoms: _424  and  _427
REMARK  182  A    between atoms: _427  and  _428
REMARK  183  A    between atoms: _431  and  _433
REMARK  184  A    between atoms: _433  and  _434
REMARK  185  A    between atoms: _433  and  _436
REMARK  186  A    between atoms: _436  and  _437
REMARK  187  A    between atoms: _440  and  _442
REMARK  188  A    between atoms: _442  and  _443
REMARK  189  A    between atoms: _442  and  _445
REMARK  190  A    between atoms: _445  and  _446
REMARK  191  A    between atoms: _448  and  _450
REMARK  192  A    between atoms: _450  and  _451
REMARK  193  A    between atoms: _450  and  _453
REMARK  194  A    between atoms: _453  and  _454
REMARK  195  A    between atoms: _464  and  _466
REMARK  196  A    between atoms: _466  and  _467
REMARK  197  A    between atoms: _469  and  _471
REMARK  198  A    between atoms: _471  and  _472
REMARK  199  A    between atoms: _471  and  _474
REMARK  200  A    between atoms: _474  and  _475
REMARK  201  A    between atoms: _475  and  _476
REMARK  202  A    between atoms: _479  and  _481
REMARK  203  A    between atoms: _481  and  _482
REMARK  204  A    between atoms: _484  and  _486
REMARK  205  A    between atoms: _486  and  _487
REMARK  206  A    between atoms: _486  and  _489
REMARK  207  A    between atoms: _489  and  _490
REMARK  208  A    between atoms: _491  and  _493
REMARK  209  A    between atoms: _493  and  _494
REMARK  210  A    between atoms: _497  and  _499
REMARK  211  A    between atoms: _499  and  _500
REMARK  212  A    between atoms: _499  and  _502
REMARK  213  A    between atoms: _502  and  _503
REMARK  214  A    between atoms: _503  and  _504
REMARK  215  A    between atoms: _509  and  _511
REMARK  216  A    between atoms: _511  and  _512
REMARK  217  A    between atoms: _511  and  _514
REMARK  218  A    between atoms: _514  and  _515
REMARK  219  A    between atoms: _515  and  _516
REMARK  220  A    between atoms: _516  and  _517
REMARK  221  A    between atoms: _527  and  _528
REMARK  222  A    between atoms: _533  and  _535
REMARK  223  A    between atoms: _535  and  _536
REMARK  224  A    between atoms: _538  and  _540
REMARK  225  A    between atoms: _540  and  _541
REMARK  226  A    between atoms: _540  and  _543
REMARK  227  A    between atoms: _546  and  _548
REMARK  228  A    between atoms: _548  and  _549
REMARK  229  A    between atoms: _548  and  _551
REMARK  230  A    between atoms: _551  and  _552
REMARK  231  A    between atoms: _557  and  _558
REMARK  232  A    between atoms: _560  and  _562
REMARK  233  A    between atoms: _562  and  _563
REMARK  234  A    between atoms: _562  and  _565
REMARK  235  A    between atoms: _565  and  _566
REMARK                            x       y       z     vdW  Elec       q    Type
REMARK                         _______ _______ _______ _____ _____    ______ ____
ROOT
ATOM      1  C   THR A   1      41.663 -23.837  41.804  0.00  0.00    +0.241 C 
ATOM      2  O   THR A   1      41.926 -24.555  42.771  0.00  0.00    -0.274 OA
ATOM      3  N   LEU A   2      41.246 -24.301  40.618  0.00  0.00    -0.298 N 
ATOM      4  H   LEU A   2      40.915 -23.614  39.911  0.00  0.00    +0.150 HD
ENDROOT
BRANCH   1   5
ATOM      5  CA  THR A   1      41.655 -22.330  41.936  0.00  0.00    +0.172 C 
BRANCH   5   6
ATOM      6  N   THR A   1      40.748 -22.053  43.050  0.00  0.00    -0.236 NA
ATOM      7  H   THR A   1      41.035 -22.370  43.998  0.00  0.00    +0.142 HD
ENDBRANCH   5   6
BRANCH   5   8
ATOM      8  CB  THR A   1      43.057 -21.692  42.074  0.00  0.00    +0.135 C 
ATOM      9  CG2 THR A   1      43.688 -21.888  43.463  0.00  0.00    +0.034 C 
BRANCH   8  10
ATOM     10  OG1 THR A   1      43.902 -22.242  41.074  0.00  0.00    -0.383 OA
ATOM     11  HG1 THR A   1      43.526 -22.043  40.180  0.00  0.00    +0.210 HD
ENDBRANCH   8  10
ENDBRANCH   5   8
ENDBRANCH   1   5
BRANCH   3  12
ATOM     12  CA  LEU A   2      41.231 -25.696  40.269  0.00  0.00    +0.137 C 
BRANCH  12  13
ATOM     13  C   LEU A   2      42.547 -25.933  39.538  0.00  0.00    +0.227 C 
ATOM     14  O   LEU A   2      42.819 -25.279  38.535  0.00  0.00    -0.286 OA
ENDBRANCH  12  13
BRANCH  12  15
ATOM     15  CB  LEU A   2      40.004 -25.999  39.363  0.00  0.00    +0.028 C 
BRANCH  15  16
ATOM     16  CG  LEU A   2      39.917 -27.413  38.754  0.00  0.00    +0.002 C 
ATOM     17  CD2 LEU A   2      39.823 -28.504  39.850  0.00  0.00    +0.000 C 
ATOM     18  CD1 LEU A   2      38.733 -27.523  37.827  0.00  0.00    +0.000 C 
ENDBRANCH  15  16
ENDBRANCH  12  15
ENDBRANCH   3  12
TORSDOF 8
REMARK  Name = ../refined-set-2016/5e2p/5e2p_pocket.pdb
REMARK  235 active torsions:
REMARK  status: ('A' for Active; 'I' for Inactive)
REMARK    1  A    between atoms: _1  and  _5
REMARK    2  A    between atoms: _5  and  _6
REMARK    3  A    between atoms: _5  and  _8
REMARK    4  A    between atoms: _8  and  _9
REMARK    5  A    between atoms: _12  and  _14
REMARK    6  A    between atoms: _14  and  _15
REMARK    7  A    between atoms: _14  and  _17
REMARK    8  A    between atoms: _20  and  _22
REMARK    9  A    between atoms: _22  and  _23
REMARK   10  A    between atoms: _22  and  _25
REMARK   11  A    between atoms: _25  and  _26
REMARK   12  A    between atoms: _29  and  _31
REMARK   13  A    between atoms: _31  and  _32
REMARK   14  A    between atoms: _31  and  _34
REMARK   15  A    between atoms: _34  and  _35
REMARK   16  A    between atoms: _38  and  _40
REMARK   17  A    between atoms: _40  and  _41
REMARK   18  A    between atoms: _40  and  _43
REMARK   19  A    between atoms: _43  and  _44
REMARK   20  A    between atoms: _47  and  _49
REMARK   21  A    between atoms: _49  and  _50
REMARK   22  A    between atoms: _49  and  _52
REMARK   23  A    between atoms: _52  and  _53
REMARK   24  A    between atoms: _56  and  _58
REMARK   25  A    between atoms: _58  and  _59
REMARK   26  A    between atoms: _58  and  _61
REMARK   27  A    between atoms: _61  and  _62
REMARK   28  A    between atoms: _62  and  _63
REMARK   29  A    between atoms: _68  and  _70
REMARK   30  A    between atoms: _70  and  _71
REMARK   31  A    between atoms: _70  and  _73
REMARK   32  A    between atoms: _73  and  _74
REMARK   33  A    between atoms: _74  and  _75
REMARK   34  A    between atoms: _75  and  _76
REMARK   35  A    between atoms: _85  and  _87
REMARK   36  A    between atoms: _87  and  _88
REMARK   37  A    between atoms: _87  and  _90
REMARK   38  A    between atoms: _90  and  _91
REMARK   39  A    between atoms: _96  and  _98
REMARK   40  A    between atoms: _98  and  _99
REMARK   41  A    between atoms: _98  and  _101
REMARK   42  A    between atoms: _101  and  _102
REMARK   43  A    between atoms: _105  and  _107
REMARK   44  A    between atoms: _107  and  _108
REMARK   45  A    between atoms: _107  and  _110
REMARK   46  A    between atoms: _110  and  _111
REMARK   47  A    between atoms: _111  and  _146
REMARK   48  A    between atoms: _112  and  _114
REMARK   49  A    between atoms: _114  and  _115
REMARK   50  A    between atoms: _117  and  _119
REMARK   51  A    between atoms: _119  and  _120
REMARK   52  A    between atoms: _123  and  _125
REMARK   53  A    between atoms: _125  and  _126
REMARK   54  A    between atoms: _129  and  _131
REMARK   55  A    between atoms: _131  and  _132
REMARK   56  A    between atoms: _131  and  _134
REMARK   57  A    between atoms: _134  and  _135
REMARK   58  A    between atoms: _140  and  _142
REMARK   59  A    between atoms: _142  and  _143
REMARK   60  A    between atoms: _142  and  _145
REMARK   61  A    between atoms: _145  and  _146
REMARK   62  A    between atoms: _147  and  _149
REMARK   63  A    between atoms: _149  and  _150
REMARK   64  A    between atoms: _149  and  _152
REMARK   65  A    between atoms: _152  and  _153
REMARK   66  A    between atoms: _159  and  _161
REMARK   67  A    between atoms: _161  and  _162
REMARK   68  A    between atoms: _161  and  _164
REMARK   69  A    between atoms: _164  and  _165
REMARK   70  A    between atoms: _170  and  _171
REMARK   71  A    between atoms: _173  and  _175
REMARK   72  A    between atoms: _175  and  _176
REMARK   73  A    between atoms: _178  and  _180
REMARK   74  A    between atoms: _180  and  _181
REMARK   75  A    between atoms: _180  and  _183
REMARK   76  A    between atoms: _186  and  _188
REMARK   77  A    between atoms: _188  and  _189
REMARK   78  A    between atoms: _192  and  _194
REMARK   79  A    between atoms: _194  and  _195
REMARK   80  A    between atoms: _194  and  _197
REMARK   81  A    between atoms: _197  and  _198
REMARK   82  A    between atoms: _201  and  _203
REMARK   83  A    between atoms: _203  and  _204
REMARK   84  A    between atoms: _203  and  _206
REMARK   85  A    between atoms: _209  and  _211
REMARK   86  A    between atoms: _211  and  _212
REMARK   87  A    between atoms: _211  and  _214
REMARK   88  A    between atoms: _214  and  _215
REMARK   89  A    between atoms: _225  and  _227
REMARK   90  A    between atoms: _227  and  _228
REMARK   91  A    between atoms: _230  and  _232
REMARK   92  A    between atoms: _232  and  _233
REMARK   93  A    between atoms: _232  and  _235
REMARK   94  A    between atoms: _235  and  _236
REMARK   95  A    between atoms: _241  and  _242
REMARK   96  A    between atoms: _244  and  _246
REMARK   97  A    between atoms: _246  and  _247
REMARK   98  A    between atoms: _246  and  _249
REMARK   99  A    between atoms: _249  and  _250
REMARK  100  A    between atoms: _250  and  _251
REMARK  101  A    between atoms: _251  and  _252
REMARK  102  A    between atoms: _252  and  _253
REMARK  103  A    between atoms: _257  and  _259
REMARK  104  A    between atoms: _259  and  _260
REMARK  105  A    between atoms: _259  and  _262
REMARK  106  A    between atoms: _262  and  _263
REMARK  107  A    between atoms: _266  and  _268
REMARK  108  A    between atoms: _268  and  _269
REMARK  109  A    between atoms: _268  and  _271
REMARK  110  A    between atoms: _271  and  _272
REMARK  111  A    between atoms: _275  and  _277
REMARK  112  A    between atoms: _277  and  _278
REMARK  113  A    between atoms: _277  and  _280
REMARK  114  A    between atoms: _280  and  _281
REMARK  115  A    between atoms: _281  and  _282
REMARK  116  A    between atoms: _282  and  _283
REMARK  117  A    between atoms: _283  and  _284
REMARK  118  A    between atoms: _288  and  _290
REMARK  119  A    between atoms: _290  and  _291
REMARK  120  A    between atoms: _290  and  _293
REMARK  121  A    between atoms: _293  and  _294
REMARK  122  A    between atoms: _297  and  _299
REMARK  123  A    between atoms: _299  and  _300
REMARK  124  A    between atoms: _299  and  _302
REMARK  125  A    between atoms: _302  and  _303
REMARK  126  A    between atoms: _308  and  _309
REMARK  127  A    between atoms: _311  and  _313
REMARK  128  A    between atoms: _313  and  _314
REMARK  129  A    between atoms: _313  and  _316
REMARK  130  A    between atoms: _316  and  _317
REMARK  131  A    between atoms: _320  and  _322
REMARK  132  A    between atoms: _322  and  _323
REMARK  133  A    between atoms: _322  and  _325
REMARK  134  A    between atoms: _327  and  _329
REMARK  135  A    between atoms: _329  and  _330
REMARK  136  A    between atoms: _333  and  _335
REMARK  137  A    between atoms: _335  and  _336
REMARK  138  A    between atoms: _335  and  _338
REMARK  139  A    between atoms: _338  and  _339
REMARK  140  A    between atoms: _339  and  _340
REMARK  141  A    between atoms: _340  and  _341
REMARK  142  A    between atoms: _341  and  _342
REMARK  143  A    between atoms: _346  and  _348
REMARK  144  A    between atoms: _348  and  _349
REMARK  145  A    between atoms: _348  and  _351
REMARK  146  A    between atoms: _351  and  _352
REMARK  147  A    between atoms: _355  and  _357
REMARK  148  A    between atoms: _357  and  _358
REMARK  149  A    between atoms: _361  and  _363
REMARK  150  A    between atoms: _363  and  _364
REMARK  151  A    between atoms: _363  and  _366
REMARK  152  A    between atoms: _366  and  _367
REMARK  153  A    between atoms: _367  and  _490
REMARK  154  A    between atoms: _368  and  _370
REMARK  155  A    between atoms: _370  and  _371
REMARK  156  A    between atoms: _370  and  _373
REMARK  157  A    between atoms: _373  and  _374
REMARK  158  A    between atoms: _374  and  _375
REMARK  159  A    between atoms: _375  and  _376
REMARK  160  A    between atoms: _376  and  _377
REMARK  161  A    between atoms: _381  and  _383
REMARK  162  A    between atoms: _383  and  _384
REMARK  163  A    between atoms: _386  and  _388
REMARK  164  A    between atoms: _388  and  _389
REMARK  165  A    between atoms: _388  and  _391
REMARK  166  A    between atoms: _391  and  _392
REMARK  167  A    between atoms: _395  and  _397
REMARK  168  A    between atoms: _397  and  _398
REMARK  169  A    between atoms: _397  and  _400
REMARK  170  A    between atoms: _400  and  _401
REMARK  171  A    between atoms: _403  and  _405
REMARK  172  A    between atoms: _405  and  _406
REMARK  173  A    between atoms: _408  and  _410
REMARK  174  A    between atoms: _410  and  _411
REMARK  175  A    between atoms: _413  and  _415
REMARK  176  A    between atoms: _415  and  _416
REMARK  177  A    between atoms: _415  and  _418
REMARK  178  A    between atoms: _418  and  _419
REMARK  179  A    between atoms: _422  and  _424
REMARK  180  A    between atoms: _424  and  _425
REMARK  181  A    between atoms: _424  and  _427
REMARK  182  A    between atoms: _427  and  _428
REMARK  183  A    between atoms: _431  and  _433
REMARK  184  A    between atoms: _433  and  _434
REMARK  185  A    between atoms: _433  and  _436
REMARK  186  A    between atoms: _436  and  _437
REMARK  187  A    between atoms: _440  and  _442
REMARK  188  A    between atoms: _442  and  _443
REMARK  189  A    between atoms: _442  and  _445
REMARK  190  A    between atoms: _445  and  _446
REMARK  191  A    between atoms: _448  and  _450
REMARK  192  A    between atoms: _450  and  _451
REMARK  193  A    between atoms: _450  and  _453
REMARK  194  A    between atoms: _453  and  _454
REMARK  195  A    between atoms: _464  and  _466
REMARK  196  A    between atoms: _466  and  _467
REMARK  197  A    between atoms: _469  and  _471
REMARK  198  A    between atoms: _471  and  _472
REMARK  199  A    between atoms: _471  and  _474
REMARK  200  A    between atoms: _474  and  _475
REMARK  201  A    between atoms: _475  and  _476
REMARK  202  A    between atoms: _479  and  _481
REMARK  203  A    between atoms: _481  and  _482
REMARK  204  A    between atoms: _484  and  _486
REMARK  205  A    between atoms: _486  and  _487
REMARK  206  A    between atoms: _486  and  _489
REMARK  207  A    between atoms: _489  and  _490
REMARK  208  A    between atoms: _491  and  _493
REMARK  209  A    between atoms: _493  and  _494
REMARK  210  A    between atoms: _497  and  _499
REMARK  211  A    between atoms: _499  and  _500
REMARK  212  A    between atoms: _499  and  _502
REMARK  213  A    between atoms: _502  and  _503
REMARK  214  A    between atoms: _503  and  _504
REMARK  215  A    between atoms: _509  and  _511
REMARK  216  A    between atoms: _511  and  _512
REMARK  217  A    between atoms: _511  and  _514
REMARK  218  A    between atoms: _514  and  _515
REMARK  219  A    between atoms: _515  and  _516
REMARK  220  A    between atoms: _516  and  _517
REMARK  221  A    between atoms: _527  and  _528
REMARK  222  A    between atoms: _533  and  _535
REMARK  223  A    between atoms: _535  and  _536
REMARK  224  A    between atoms: _538  and  _540
REMARK  225  A    between atoms: _540  and  _541
REMARK  226  A    between atoms: _540  and  _543
REMARK  227  A    between atoms: _546  and  _548
REMARK  228  A    between atoms: _548  and  _549
REMARK  229  A    between atoms: _548  and  _551
REMARK  230  A    between atoms: _551  and  _552
REMARK  231  A    between atoms: _557  and  _558
REMARK  232  A    between atoms: _560  and  _562
REMARK  233  A    between atoms: _562  and  _563
REMARK  234  A    between atoms: _562  and  _565
REMARK  235  A    between atoms: _565  and  _566
REMARK                            x       y       z     vdW  Elec       q    Type
REMARK                         _______ _______ _______ _____ _____    ______ ____
ROOT
ATOM      1  CA  THR A   1      45.632 -30.162  37.349  0.00  0.00    +0.160 C 
ENDROOT
BRANCH   1   2
ATOM      2  N   THR A   1      45.489 -28.868  37.998  0.00  0.00    -0.237 NA
ATOM      3  H   THR A   1      46.143 -28.108  37.722  0.00  0.00    +0.142 HD
ENDBRANCH   1   2
BRANCH   1   4
ATOM      4  C   THR A   1      47.068 -30.603  37.617  0.00  0.00    +0.227 C 
ATOM      5  O   THR A   1      47.940 -29.736  37.713  0.00  0.00    -0.287 OA
ENDBRANCH   1   4
BRANCH   1   6
ATOM      6  CB  THR A   1      45.183 -30.073  35.861  0.00  0.00    +0.134 C 
ATOM      7  CG2 THR A   1      46.165 -29.324  34.964  0.00  0.00    +0.034 C 
BRANCH   6   8
ATOM      8  OG1 THR A   1      44.940 -31.376  35.344  0.00  0.00    -0.383 OA
ATOM      9  HG1 THR A   1      44.655 -31.307  34.398  0.00  0.00    +0.210 HD
ENDBRANCH   6   8
ENDBRANCH   1   6
TORSDOF 4
REMARK  Name = ../refined-set-2016/5e2p/5e2p_pocket.pdb
REMARK  235 active torsions:
REMARK  status: ('A' for Active; 'I' for Inactive)
REMARK    1  A    between atoms: _1  and  _5
REMARK    2  A    between atoms: _5  and  _6
REMARK    3  A    between atoms: _5  and  _8
REMARK    4  A    between atoms: _8  and  _9
REMARK    5  A    between atoms: _12  and  _14
REMARK    6  A    between atoms: _14  and  _15
REMARK    7  A    between atoms: _14  and  _17
REMARK    8  A    between atoms: _20  and  _22
REMARK    9  A    between atoms: _22  and  _23
REMARK   10  A    between atoms: _22  and  _25
REMARK   11  A    between atoms: _25  and  _26
REMARK   12  A    between atoms: _29  and  _31
REMARK   13  A    between atoms: _31  and  _32
REMARK   14  A    between atoms: _31  and  _34
REMARK   15  A    between atoms: _34  and  _35
REMARK   16  A    between atoms: _38  and  _40
REMARK   17  A    between atoms: _40  and  _41
REMARK   18  A    between atoms: _40  and  _43
REMARK   19  A    between atoms: _43  and  _44
REMARK   20  A    between atoms: _47  and  _49
REMARK   21  A    between atoms: _49  and  _50
REMARK   22  A    between atoms: _49  and  _52
REMARK   23  A    between atoms: _52  and  _53
REMARK   24  A    between atoms: _56  and  _58
REMARK   25  A    between atoms: _58  and  _59
REMARK   26  A    between atoms: _58  and  _61
REMARK   27  A    between atoms: _61  and  _62
REMARK   28  A    between atoms: _62  and  _63
REMARK   29  A    between atoms: _68  and  _70
REMARK   30  A    between atoms: _70  and  _71
REMARK   31  A    between atoms: _70  and  _73
REMARK   32  A    between atoms: _73  and  _74
REMARK   33  A    between atoms: _74  and  _75
REMARK   34  A    between atoms: _75  and  _76
REMARK   35  A    between atoms: _85  and  _87
REMARK   36  A    between atoms: _87  and  _88
REMARK   37  A    between atoms: _87  and  _90
REMARK   38  A    between atoms: _90  and  _91
REMARK   39  A    between atoms: _96  and  _98
REMARK   40  A    between atoms: _98  and  _99
REMARK   41  A    between atoms: _98  and  _101
REMARK   42  A    between atoms: _101  and  _102
REMARK   43  A    between atoms: _105  and  _107
REMARK   44  A    between atoms: _107  and  _108
REMARK   45  A    between atoms: _107  and  _110
REMARK   46  A    between atoms: _110  and  _111
REMARK   47  A    between atoms: _111  and  _146
REMARK   48  A    between atoms: _112  and  _114
REMARK   49  A    between atoms: _114  and  _115
REMARK   50  A    between atoms: _117  and  _119
REMARK   51  A    between atoms: _119  and  _120
REMARK   52  A    between atoms: _123  and  _125
REMARK   53  A    between atoms: _125  and  _126
REMARK   54  A    between atoms: _129  and  _131
REMARK   55  A    between atoms: _131  and  _132
REMARK   56  A    between atoms: _131  and  _134
REMARK   57  A    between atoms: _134  and  _135
REMARK   58  A    between atoms: _140  and  _142
REMARK   59  A    between atoms: _142  and  _143
REMARK   60  A    between atoms: _142  and  _145
REMARK   61  A    between atoms: _145  and  _146
REMARK   62  A    between atoms: _147  and  _149
REMARK   63  A    between atoms: _149  and  _150
REMARK   64  A    between atoms: _149  and  _152
REMARK   65  A    between atoms: _152  and  _153
REMARK   66  A    between atoms: _159  and  _161
REMARK   67  A    between atoms: _161  and  _162
REMARK   68  A    between atoms: _161  and  _164
REMARK   69  A    between atoms: _164  and  _165
REMARK   70  A    between atoms: _170  and  _171
REMARK   71  A    between atoms: _173  and  _175
REMARK   72  A    between atoms: _175  and  _176
REMARK   73  A    between atoms: _178  and  _180
REMARK   74  A    between atoms: _180  and  _181
REMARK   75  A    between atoms: _180  and  _183
REMARK   76  A    between atoms: _186  and  _188
REMARK   77  A    between atoms: _188  and  _189
REMARK   78  A    between atoms: _192  and  _194
REMARK   79  A    between atoms: _194  and  _195
REMARK   80  A    between atoms: _194  and  _197
REMARK   81  A    between atoms: _197  and  _198
REMARK   82  A    between atoms: _201  and  _203
REMARK   83  A    between atoms: _203  and  _204
REMARK   84  A    between atoms: _203  and  _206
REMARK   85  A    between atoms: _209  and  _211
REMARK   86  A    between atoms: _211  and  _212
REMARK   87  A    between atoms: _211  and  _214
REMARK   88  A    between atoms: _214  and  _215
REMARK   89  A    between atoms: _225  and  _227
REMARK   90  A    between atoms: _227  and  _228
REMARK   91  A    between atoms: _230  and  _232
REMARK   92  A    between atoms: _232  and  _233
REMARK   93  A    between atoms: _232  and  _235
REMARK   94  A    between atoms: _235  and  _236
REMARK   95  A    between atoms: _241  and  _242
REMARK   96  A    between atoms: _244  and  _246
REMARK   97  A    between atoms: _246  and  _247
REMARK   98  A    between atoms: _246  and  _249
REMARK   99  A    between atoms: _249  and  _250
REMARK  100  A    between atoms: _250  and  _251
REMARK  101  A    between atoms: _251  and  _252
REMARK  102  A    between atoms: _252  and  _253
REMARK  103  A    between atoms: _257  and  _259
REMARK  104  A    between atoms: _259  and  _260
REMARK  105  A    between atoms: _259  and  _262
REMARK  106  A    between atoms: _262  and  _263
REMARK  107  A    between atoms: _266  and  _268
REMARK  108  A    between atoms: _268  and  _269
REMARK  109  A    between atoms: _268  and  _271
REMARK  110  A    between atoms: _271  and  _272
REMARK  111  A    between atoms: _275  and  _277
REMARK  112  A    between atoms: _277  and  _278
REMARK  113  A    between atoms: _277  and  _280
REMARK  114  A    between atoms: _280  and  _281
REMARK  115  A    between atoms: _281  and  _282
REMARK  116  A    between atoms: _282  and  _283
REMARK  117  A    between atoms: _283  and  _284
REMARK  118  A    between atoms: _288  and  _290
REMARK  119  A    between atoms: _290  and  _291
REMARK  120  A    between atoms: _290  and  _293
REMARK  121  A    between atoms: _293  and  _294
REMARK  122  A    between atoms: _297  and  _299
REMARK  123  A    between atoms: _299  and  _300
REMARK  124  A    between atoms: _299  and  _302
REMARK  125  A    between atoms: _302  and  _303
REMARK  126  A    between atoms: _308  and  _309
REMARK  127  A    between atoms: _311  and  _313
REMARK  128  A    between atoms: _313  and  _314
REMARK  129  A    between atoms: _313  and  _316
REMARK  130  A    between atoms: _316  and  _317
REMARK  131  A    between atoms: _320  and  _322
REMARK  132  A    between atoms: _322  and  _323
REMARK  133  A    between atoms: _322  and  _325
REMARK  134  A    between atoms: _327  and  _329
REMARK  135  A    between atoms: _329  and  _330
REMARK  136  A    between atoms: _333  and  _335
REMARK  137  A    between atoms: _335  and  _336
REMARK  138  A    between atoms: _335  and  _338
REMARK  139  A    between atoms: _338  and  _339
REMARK  140  A    between atoms: _339  and  _340
REMARK  141  A    between atoms: _340  and  _341
REMARK  142  A    between atoms: _341  and  _342
REMARK  143  A    between atoms: _346  and  _348
REMARK  144  A    between atoms: _348  and  _349
REMARK  145  A    between atoms: _348  and  _351
REMARK  146  A    between atoms: _351  and  _352
REMARK  147  A    between atoms: _355  and  _357
REMARK  148  A    between atoms: _357  and  _358
REMARK  149  A    between atoms: _361  and  _363
REMARK  150  A    between atoms: _363  and  _364
REMARK  151  A    between atoms: _363  and  _366
REMARK  152  A    between atoms: _366  and  _367
REMARK  153  A    between atoms: _367  and  _490
REMARK  154  A    between atoms: _368  and  _370
REMARK  155  A    between atoms: _370  and  _371
REMARK  156  A    between atoms: _370  and  _373
REMARK  157  A    between atoms: _373  and  _374
REMARK  158  A    between atoms: _374  and  _375
REMARK  159  A    between atoms: _375  and  _376
REMARK  160  A    between atoms: _376  and  _377
REMARK  161  A    between atoms: _381  and  _383
REMARK  162  A    between atoms: _383  and  _384
REMARK  163  A    between atoms: _386  and  _388
REMARK  164  A    between atoms: _388  and  _389
REMARK  165  A    between atoms: _388  and  _391
REMARK  166  A    between atoms: _391  and  _392
REMARK  167  A    between atoms: _395  and  _397
REMARK  168  A    between atoms: _397  and  _398
REMARK  169  A    between atoms: _397  and  _400
REMARK  170  A    between atoms: _400  and  _401
REMARK  171  A    between atoms: _403  and  _405
REMARK  172  A    between atoms: _405  and  _406
REMARK  173  A    between atoms: _408  and  _410
REMARK  174  A    between atoms: _410  and  _411
REMARK  175  A    between atoms: _413  and  _415
REMARK  176  A    between atoms: _415  and  _416
REMARK  177  A    between atoms: _415  and  _418
REMARK  178  A    between atoms: _418  and  _419
REMARK  179  A    between atoms: _422  and  _424
REMARK  180  A    between atoms: _424  and  _425
REMARK  181  A    between atoms: _424  and  _427
REMARK  182  A    between atoms: _427  and  _428
REMARK  183  A    between atoms: _431  and  _433
REMARK  184  A    between atoms: _433  and  _434
REMARK  185  A    between atoms: _433  and  _436
REMARK  186  A    between atoms: _436  and  _437
REMARK  187  A    between atoms: _440  and  _442
REMARK  188  A    between atoms: _442  and  _443
REMARK  189  A    between atoms: _442  and  _445
REMARK  190  A    between atoms: _445  and  _446
REMARK  191  A    between atoms: _448  and  _450
REMARK  192  A    between atoms: _450  and  _451
REMARK  193  A    between atoms: _450  and  _453
REMARK  194  A    between atoms: _453  and  _454
REMARK  195  A    between atoms: _464  and  _466
REMARK  196  A    between atoms: _466  and  _467
REMARK  197  A    between atoms: _469  and  _471
REMARK  198  A    between atoms: _471  and  _472
REMARK  199  A    between atoms: _471  and  _474
REMARK  200  A    between atoms: _474  and  _475
REMARK  201  A    between atoms: _475  and  _476
REMARK  202  A    between atoms: _479  and  _481
REMARK  203  A    between atoms: _481  and  _482
REMARK  204  A    between atoms: _484  and  _486
REMARK  205  A    between atoms: _486  and  _487
REMARK  206  A    between atoms: _486  and  _489
REMARK  207  A    between atoms: _489  and  _490
REMARK  208  A    between atoms: _491  and  _493
REMARK  209  A    between atoms: _493  and  _494
REMARK  210  A    between atoms: _497  and  _499
REMARK  211  A    between atoms: _499  and  _500
REMARK  212  A    between atoms: _499  and  _502
REMARK  213  A    between atoms: _502  and  _503
REMARK  214  A    between atoms: _503  and  _504
REMARK  215  A    between atoms: _509  and  _511
REMARK  216  A    between atoms: _511  and  _512
REMARK  217  A    between atoms: _511  and  _514
REMARK  218  A    between atoms: _514  and  _515
REMARK  219  A    between atoms: _515  and  _516
REMARK  220  A    between atoms: _516  and  _517
REMARK  221  A    between atoms: _527  and  _528
REMARK  222  A    between atoms: _533  and  _535
REMARK  223  A    between atoms: _535  and  _536
REMARK  224  A    between atoms: _538  and  _540
REMARK  225  A    between atoms: _540  and  _541
REMARK  226  A    between atoms: _540  and  _543
REMARK  227  A    between atoms: _546  and  _548
REMARK  228  A    between atoms: _548  and  _549
REMARK  229  A    between atoms: _548  and  _551
REMARK  230  A    between atoms: _551  and  _552
REMARK  231  A    between atoms: _557  and  _558
REMARK  232  A    between atoms: _560  and  _562
REMARK  233  A    between atoms: _562  and  _563
REMARK  234  A    between atoms: _562  and  _565
REMARK  235  A    between atoms: _565  and  _566
REMARK                            x       y       z     vdW  Elec       q    Type
REMARK                         _______ _______ _______ _____ _____    ______ ____
ROOT
ATOM      1  SG  TYR A   6      38.881 -23.987  33.697  0.00  0.00    -0.080 S 
ENDROOT
BRANCH   1   2
ATOM      2  CB  TYR A   6      39.050 -23.864  35.501  0.00  0.00    +0.098 C 
BRANCH   2   3
ATOM      3  CA  TYR A   6      40.216 -22.985  35.965  0.00  0.00    +0.160 C 
BRANCH   3   4
ATOM      4  C   TYR A   6      39.910 -22.401  37.314  0.00  0.00    +0.242 C 
ATOM      5  O   TYR A   6      40.385 -22.904  38.340  0.00  0.00    -0.273 OA
ATOM      6  N   GLY A   7      39.014 -21.429  37.295  0.00  0.00    -0.296 N 
ATOM      7  H   GLY A   7      38.736 -21.032  36.375  0.00  0.00    +0.150 HD
BRANCH   6   8
ATOM      8  CA  GLY A   7      38.397 -20.886  38.495  0.00  0.00    +0.163 C 
BRANCH   8   9
ATOM      9  C   GLY A   7      37.170 -21.722  38.811  0.00  0.00    +0.229 C 
ATOM     10  O   GLY A   7      36.794 -22.622  38.046  0.00  0.00    -0.286 OA
ENDBRANCH   8   9
ENDBRANCH   6   8
ENDBRANCH   3   4
BRANCH   3  12
ATOM     11  C   PHE A   5      42.234 -23.979  34.974  0.00  0.00    +0.241 C 
ATOM     12  N   TYR A   6      41.428 -23.794  36.036  0.00  0.00    -0.296 N 
ATOM     13  H   TYR A   6      41.678 -24.244  36.940  0.00  0.00    +0.150 HD
ATOM     14  O   PHE A   5      42.014 -23.456  33.874  0.00  0.00    -0.273 OA
BRANCH  11  15
ATOM     15  CA  PHE A   5      43.398 -24.960  35.169  0.00  0.00    +0.149 C 
BRANCH  15  17
ATOM     16  C   CYS A   4      45.432 -24.028  36.214  0.00  0.00    +0.241 C 
ATOM     17  N   PHE A   5      44.221 -24.588  36.312  0.00  0.00    -0.297 N 
ATOM     18  H   PHE A   5      43.843 -24.769  37.264  0.00  0.00    +0.150 HD
ATOM     19  O   CYS A   4      46.008 -23.841  35.138  0.00  0.00    -0.273 OA
BRANCH  16  20
ATOM     20  CA  CYS A   4      46.149 -23.656  37.517  0.00  0.00    +0.155 C 
BRANCH  20  23
ATOM     21  C   HIS A   3      47.831 -25.460  37.318  0.00  0.00    +0.241 C 
ATOM     22  O   HIS A   3      47.033 -26.353  37.564  0.00  0.00    -0.273 OA
ATOM     23  N   CYS A   4      47.505 -24.157  37.331  0.00  0.00    -0.297 N 
ATOM     24  H   CYS A   4      48.268 -23.462  37.200  0.00  0.00    +0.150 HD
BRANCH  21  25
ATOM     25  CA  HIS A   3      49.262 -25.814  36.944  0.00  0.00    +0.149 C 
BRANCH  25  28
ATOM     26  C   ALA A   2      50.808 -27.601  37.670  0.00  0.00    +0.241 C 
ATOM     27  O   ALA A   2      51.824 -26.910  37.508  0.00  0.00    -0.273 OA
ATOM     28  N   HIS A   3      49.551 -27.166  37.400  0.00  0.00    -0.297 N 
ATOM     29  H   HIS A   3      48.759 -27.828  37.524  0.00  0.00    +0.150 HD
BRANCH  26  30
ATOM     30  CA  ALA A   2      50.927 -29.050  38.147  0.00  0.00    +0.149 C 
BRANCH  30  32
ATOM     31  C   ALA A   1      51.468 -30.134  36.028  0.00  0.00    +0.241 C 
ATOM     32  N   ALA A   2      51.814 -29.801  37.282  0.00  0.00    -0.297 N 
ATOM     33  H   ALA A   2      52.746 -30.091  37.643  0.00  0.00    +0.150 HD
ATOM     34  O   ALA A   1      50.370 -29.845  35.527  0.00  0.00    -0.274 OA
BRANCH  31  35
ATOM     35  CA  ALA A   1      52.511 -30.908  35.209  0.00  0.00    +0.172 C 
BRANCH  35  36
ATOM     36  N   ALA A   1      51.837 -31.659  34.136  0.00  0.00    -0.236 NA
ATOM     37  H   ALA A   1      51.191 -31.118  33.527  0.00  0.00    +0.142 HD
ENDBRANCH  35  36
BRANCH  35  38
ATOM     38  CB  ALA A   1      53.513 -29.897  34.613  0.00  0.00    +0.135 C 
ATOM     39  CG2 ALA A   1      54.809 -30.554  34.132  0.00  0.00    +0.034 C 
BRANCH  38  40
ATOM     40  OG1 ALA A   1      52.875 -29.171  33.551  0.00  0.00    -0.383 OA
ATOM     41  HG1 ALA A   1      53.515 -28.521  33.166  0.00  0.00    +0.210 HD
ENDBRANCH  38  40
ENDBRANCH  35  38
ENDBRANCH  31  35
ENDBRANCH  30  32
BRANCH  30  42
ATOM     42  CB  ALA A   2      51.327 -29.139  39.633  0.00  0.00    +0.039 C 
BRANCH  42  43
ATOM     43  CG  ALA A   2      50.236 -29.789  40.499  0.00  0.00    +0.087 C 
BRANCH  43  44
ATOM     44  CD  ALA A   2      49.835 -28.977  41.715  0.00  0.00    +0.219 C 
ATOM     45  NE2 ALA A   2      50.172 -29.463  42.901  0.00  0.00    -0.329 N 
ATOM     46 HE21 ALA A   2      49.872 -28.973  43.768  0.00  0.00    +0.145 HD
ATOM     47 HE22 ALA A   2      50.737 -30.334  42.965  0.00  0.00    +0.145 HD
ATOM     48  OE1 ALA A   2      49.167 -27.947  41.615  0.00  0.00    -0.275 OA
ENDBRANCH  43  44
ENDBRANCH  42  43
ENDBRANCH  30  42
ENDBRANCH  26  30
ENDBRANCH  25  28
BRANCH  25  49
ATOM     49  CB  HIS A   3      49.507 -25.681  35.403  0.00  0.00    +0.033 C 
BRANCH  49  50
ATOM     50  CG  HIS A   3      48.477 -26.388  34.492  0.00  0.00    +0.045 C 
BRANCH  50  51
ATOM     51  CD  HIS A   3      48.735 -26.211  32.984  0.00  0.00    +0.174 C 
BRANCH  51  52
ATOM     52  NE  HIS A   3      47.480 -26.128  32.206  0.00  0.00    -0.265 N 
ATOM     53  HE  HIS A   3      46.638 -26.593  32.602  0.00  0.00    +0.259 HD
ATOM     54  CZ  HIS A   3      47.343 -25.501  31.031  0.00  0.00    +0.342 C 
ATOM     55  NH2 HIS A   3      48.384 -24.899  30.464  0.00  0.00    -0.292 N 
ATOM     56 HH21 HIS A   3      49.312 -24.913  30.933  0.00  0.00    +0.255 HD
ATOM     57 HH22 HIS A   3      48.270 -24.414  29.551  0.00  0.00    +0.255 HD
ATOM     58  NH1 HIS A   3      46.163 -25.470  30.419  0.00  0.00    -0.292 N 
ATOM     59 HH11 HIS A   3      45.340 -25.934  30.853  0.00  0.00    +0.255 HD
ATOM     60 HH12 HIS A   3      46.063 -24.981  29.506  0.00  0.00    +0.255 HD
ENDBRANCH  51  52
ENDBRANCH  50  51
ENDBRANCH  49  50
ENDBRANCH  25  49
ENDBRANCH  21  25
ENDBRANCH  20  23
BRANCH  20  61
ATOM     61  CB  CYS A   4      46.196 -22.130  37.643  0.00  0.00    +0.076 C 
BRANCH  61  62
ATOM     62  CG  CYS A   4      44.870 -21.441  37.455  0.00  0.00    +0.082 A 
ATOM     63  ND1 CYS A   4      43.948 -21.349  38.495  0.00  0.00    -0.227 NA
ATOM     64  CE1 CYS A   4      42.926 -20.675  38.006  0.00  0.00    +0.199 A 
ATOM     65  NE2 CYS A   4      43.150 -20.289  36.742  0.00  0.00    -0.221 NA
ATOM     66  CD2 CYS A   4      44.397 -20.752  36.388  0.00  0.00    +0.115 A 
ENDBRANCH  61  62
ENDBRANCH  20  61
ENDBRANCH  16  20
ENDBRANCH  15  17
BRANCH  15  67
ATOM     67  CB  PHE A   5      42.851 -26.395  35.354  0.00  0.00    +0.029 C 
BRANCH  67  68
ATOM     68  CG  PHE A   5      41.955 -26.942  34.239  0.00  0.00    +0.002 C 
ATOM     69  CD2 PHE A   5      41.204 -28.177  34.704  0.00  0.00    +0.000 C 
ATOM     70  CD1 PHE A   5      42.757 -27.190  32.925  0.00  0.00    +0.000 C 
ENDBRANCH  67  68
ENDBRANCH  15  67
ENDBRANCH  11  15
ENDBRANCH   3  12
ENDBRANCH   2   3
ENDBRANCH   1   2
BRANCH   1  71
ATOM     71  SG  CYS A   4      36.977 -24.614  33.411  0.00  0.00    -0.080 S 
BRANCH  71  72
ATOM     72  CB  CYS A   4      37.241 -26.377  33.176  0.00  0.00    +0.098 C 
BRANCH  72  73
ATOM     73  CA  CYS A   4      37.482 -26.774  31.726  0.00  0.00    +0.160 C 
BRANCH  73  74
ATOM     74  N   CYS A   4      36.251 -26.568  30.956  0.00  0.00    -0.296 N 
ATOM     75  H   CYS A   4      35.399 -26.247  31.459  0.00  0.00    +0.150 HD
ATOM     76  C   HIS A   3      36.174 -26.774  29.641  0.00  0.00    +0.241 C 
ATOM     77  O   HIS A   3      37.153 -27.106  28.942  0.00  0.00    -0.273 OA
BRANCH  76  78
ATOM     78  CA  HIS A   3      34.802 -26.560  28.999  0.00  0.00    +0.155 C 
BRANCH  78  79
ATOM     79  N   HIS A   3      33.689 -26.567  29.973  0.00  0.00    -0.297 N 
ATOM     80  C   ALA A   2      33.361 -27.684  30.670  0.00  0.00    +0.241 C 
ATOM     81  O   ALA A   2      34.020 -28.721  30.619  0.00  0.00    -0.273 OA
ATOM     82  H   HIS A   3      33.144 -25.694  30.127  0.00  0.00    +0.150 HD
BRANCH  80  83
ATOM     83  CA  ALA A   2      32.160 -27.629  31.577  0.00  0.00    +0.149 C 
ATOM     84  CB  ALA A   2      30.896 -27.998  30.820  0.00  0.00    +0.031 C 
BRANCH  83  85
ATOM     85  N   ALA A   2      31.994 -26.331  32.177  0.00  0.00    -0.297 N 
ATOM     86  C   ALA A   1      32.842 -25.820  33.073  0.00  0.00    +0.238 C 
ATOM     87  O   ALA A   1      33.867 -26.387  33.430  0.00  0.00    -0.274 OA
ATOM     88  H   ALA A   2      31.170 -25.761  31.898  0.00  0.00    +0.150 HD
BRANCH  86  89
ATOM     89  CA  ALA A   1      32.527 -24.438  33.590  0.00  0.00    +0.145 C 
ATOM     90  CB  ALA A   1      33.253 -23.385  32.736  0.00  0.00    +0.028 C 
BRANCH  89  91
ATOM     91  N   ALA A   1      32.900 -24.306  35.010  0.00  0.00    -0.238 NA
ATOM     92  H   ALA A   1      33.884 -24.062  35.242  0.00  0.00    +0.142 HD
ENDBRANCH  89  91
ENDBRANCH  86  89
ENDBRANCH  83  85
ENDBRANCH  80  83
ENDBRANCH  78  79
BRANCH  78  93
ATOM     93  CB  HIS A   3      34.800 -25.307  28.097  0.00  0.00    +0.076 C 
BRANCH  93  94
ATOM     94  CG  HIS A   3      35.167 -24.063  28.842  0.00  0.00    +0.082 A 
ATOM     95  CD2 HIS A   3      36.369 -23.649  29.306  0.00  0.00    +0.115 A 
ATOM     96  NE2 HIS A   3      36.141 -22.477  30.005  0.00  0.00    -0.221 NA
ATOM     97  CE1 HIS A   3      34.848 -22.203  29.891  0.00  0.00    +0.199 A 
ATOM     98  ND1 HIS A   3      34.206 -23.162  29.245  0.00  0.00    -0.227 NA
ENDBRANCH  93  94
ENDBRANCH  78  93
ENDBRANCH  76  78
ENDBRANCH  73  74
BRANCH  73  99
ATOM     99  C   CYS A   4      37.988 -28.210  31.660  0.00  0.00    +0.242 C 
ATOM    100  O   CYS A   4      39.169 -28.436  31.871  0.00  0.00    -0.273 OA
ATOM    101  N   PHE A   5      37.077 -29.182  31.459  0.00  0.00    -0.297 N 
ATOM    102  H   PHE A   5      36.095 -28.908  31.255  0.00  0.00    +0.150 HD
BRANCH 101 103
ATOM    103  CA  PHE A   5      37.409 -30.612  31.515  0.00  0.00    +0.153 C 
BRANCH 103 104
ATOM    104  C   PHE A   5      37.656 -31.236  30.155  0.00  0.00    +0.241 C 
ATOM    105  O   PHE A   5      37.744 -32.457  30.067  0.00  0.00    -0.273 OA
ATOM    106  N   TYR A   6      37.847 -30.410  29.108  0.00  0.00    -0.297 N 
ATOM    107  H   TYR A   6      37.775 -29.382  29.250  0.00  0.00    +0.150 HD
BRANCH 106 108
ATOM    108  CA  TYR A   6      38.153 -30.931  27.776  0.00  0.00    +0.153 C 
BRANCH 108 109
ATOM    109  C   TYR A   6      39.445 -31.775  27.912  0.00  0.00    +0.241 C 
ATOM    110  O   TYR A   6      40.443 -31.289  28.451  0.00  0.00    -0.273 OA
ATOM    111  N   GLY A   7      39.380 -33.050  27.533  0.00  0.00    -0.295 N 
ATOM    112  H   GLY A   7      38.489 -33.417  27.143  0.00  0.00    +0.150 HD
BRANCH 111 113
ATOM    113  CA  GLY A   7      40.532 -33.951  27.651  0.00  0.00    +0.176 C 
BRANCH 113 114
ATOM    114  C   GLY A   7      40.917 -34.440  29.052  0.00  0.00    +0.243 C 
ATOM    115  N   VAL A   8      40.192 -34.001  30.123  0.00  0.00    -0.298 N 
ATOM    116  H   VAL A   8      39.433 -33.312  29.949  0.00  0.00    +0.150 HD
ATOM    117  O   GLY A   7      41.876 -35.213  29.180  0.00  0.00    -0.273 OA
BRANCH 115 118
ATOM    118  CA  VAL A   8      40.419 -34.444  31.510  0.00  0.00    +0.137 C 
BRANCH 118 119
ATOM    119  CB  VAL A   8      39.886 -33.417  32.561  0.00  0.00    +0.026 C 
ATOM    120  CG2 VAL A   8      39.772 -34.038  33.956  0.00  0.00    +0.002 C 
ATOM    121  CG1 VAL A   8      40.744 -32.155  32.590  0.00  0.00    +0.002 C 
ENDBRANCH 118 119
BRANCH 118 122
ATOM    122  C   VAL A   8      39.722 -35.806  31.588  0.00  0.00    +0.227 C 
ATOM    123  O   VAL A   8      38.496 -35.888  31.498  0.00  0.00    -0.286 OA
ENDBRANCH 118 122
ENDBRANCH 115 118
ENDBRANCH 113 114
ENDBRANCH 111 113
ENDBRANCH 108 109
BRANCH 108 124
ATOM    124  CB  TYR A   6      38.317 -29.778  26.741  0.00  0.00    +0.055 C 
BRANCH 124 125
ATOM    125  CG  TYR A   6      38.644 -30.288  25.352  0.00  0.00    -0.020 A 
ATOM    126  CD2 TYR A   6      39.965 -30.392  24.918  0.00  0.00    -0.001 A 
ATOM    127  CE2 TYR A   6      40.281 -30.947  23.672  0.00  0.00    +0.036 A 
ATOM    128  CZ  TYR A   6      39.265 -31.410  22.847  0.00  0.00    +0.134 A 
ATOM    129  CE1 TYR A   6      37.946 -31.336  23.270  0.00  0.00    +0.036 A 
ATOM    130  CD1 TYR A   6      37.647 -30.804  24.527  0.00  0.00    -0.001 A 
BRANCH 128 131
ATOM    131  OH  TYR A   6      39.547 -31.942  21.608  0.00  0.00    -0.506 OA
ATOM    132  HH  TYR A   6      38.704 -32.216  21.168  0.00  0.00    +0.292 HD
ENDBRANCH 128 131
ENDBRANCH 124 125
ENDBRANCH 108 124
ENDBRANCH 106 108
ENDBRANCH 103 104
BRANCH 103 133
ATOM    133  CB  PHE A   5      36.349 -31.377  32.337  0.00  0.00    +0.055 C 
BRANCH 133 134
ATOM    134  CG  PHE A   5      36.187 -30.677  33.673  0.00  0.00    -0.020 A 
ATOM    135  CD2 PHE A   5      37.122 -30.861  34.689  0.00  0.00    -0.004 A 
ATOM    136  CE2 PHE A   5      37.057 -30.116  35.870  0.00  0.00    -0.000 A 
ATOM    137  CZ  PHE A   5      36.039 -29.199  36.049  0.00  0.00    -0.000 A 
ATOM    138  CE1 PHE A   5      35.080 -29.016  35.062  0.00  0.00    -0.000 A 
ATOM    139  CD1 PHE A   5      35.166 -29.739  33.870  0.00  0.00    -0.004 A 
ENDBRANCH 133 134
ENDBRANCH 103 133
ENDBRANCH 101 103
ENDBRANCH  73  99
ENDBRANCH  72  73
ENDBRANCH  71  72
ENDBRANCH   1  71
TORSDOF 56
REMARK  Name = ../refined-set-2016/5e2p/5e2p_pocket.pdb
REMARK  235 active torsions:
REMARK  status: ('A' for Active; 'I' for Inactive)
REMARK    1  A    between atoms: _1  and  _5
REMARK    2  A    between atoms: _5  and  _6
REMARK    3  A    between atoms: _5  and  _8
REMARK    4  A    between atoms: _8  and  _9
REMARK    5  A    between atoms: _12  and  _14
REMARK    6  A    between atoms: _14  and  _15
REMARK    7  A    between atoms: _14  and  _17
REMARK    8  A    between atoms: _20  and  _22
REMARK    9  A    between atoms: _22  and  _23
REMARK   10  A    between atoms: _22  and  _25
REMARK   11  A    between atoms: _25  and  _26
REMARK   12  A    between atoms: _29  and  _31
REMARK   13  A    between atoms: _31  and  _32
REMARK   14  A    between atoms: _31  and  _34
REMARK   15  A    between atoms: _34  and  _35
REMARK   16  A    between atoms: _38  and  _40
REMARK   17  A    between atoms: _40  and  _41
REMARK   18  A    between atoms: _40  and  _43
REMARK   19  A    between atoms: _43  and  _44
REMARK   20  A    between atoms: _47  and  _49
REMARK   21  A    between atoms: _49  and  _50
REMARK   22  A    between atoms: _49  and  _52
REMARK   23  A    between atoms: _52  and  _53
REMARK   24  A    between atoms: _56  and  _58
REMARK   25  A    between atoms: _58  and  _59
REMARK   26  A    between atoms: _58  and  _61
REMARK   27  A    between atoms: _61  and  _62
REMARK   28  A    between atoms: _62  and  _63
REMARK   29  A    between atoms: _68  and  _70
REMARK   30  A    between atoms: _70  and  _71
REMARK   31  A    between atoms: _70  and  _73
REMARK   32  A    between atoms: _73  and  _74
REMARK   33  A    between atoms: _74  and  _75
REMARK   34  A    between atoms: _75  and  _76
REMARK   35  A    between atoms: _85  and  _87
REMARK   36  A    between atoms: _87  and  _88
REMARK   37  A    between atoms: _87  and  _90
REMARK   38  A    between atoms: _90  and  _91
REMARK   39  A    between atoms: _96  and  _98
REMARK   40  A    between atoms: _98  and  _99
REMARK   41  A    between atoms: _98  and  _101
REMARK   42  A    between atoms: _101  and  _102
REMARK   43  A    between atoms: _105  and  _107
REMARK   44  A    between atoms: _107  and  _108
REMARK   45  A    between atoms: _107  and  _110
REMARK   46  A    between atoms: _110  and  _111
REMARK   47  A    between atoms: _111  and  _146
REMARK   48  A    between atoms: _112  and  _114
REMARK   49  A    between atoms: _114  and  _115
REMARK   50  A    between atoms: _117  and  _119
REMARK   51  A    between atoms: _119  and  _120
REMARK   52  A    between atoms: _123  and  _125
REMARK   53  A    between atoms: _125  and  _126
REMARK   54  A    between atoms: _129  and  _131
REMARK   55  A    between atoms: _131  and  _132
REMARK   56  A    between atoms: _131  and  _134
REMARK   57  A    between atoms: _134  and  _135
REMARK   58  A    between atoms: _140  and  _142
REMARK   59  A    between atoms: _142  and  _143
REMARK   60  A    between atoms: _142  and  _145
REMARK   61  A    between atoms: _145  and  _146
REMARK   62  A    between atoms: _147  and  _149
REMARK   63  A    between atoms: _149  and  _150
REMARK   64  A    between atoms: _149  and  _152
REMARK   65  A    between atoms: _152  and  _153
REMARK   66  A    between atoms: _159  and  _161
REMARK   67  A    between atoms: _161  and  _162
REMARK   68  A    between atoms: _161  and  _164
REMARK   69  A    between atoms: _164  and  _165
REMARK   70  A    between atoms: _170  and  _171
REMARK   71  A    between atoms: _173  and  _175
REMARK   72  A    between atoms: _175  and  _176
REMARK   73  A    between atoms: _178  and  _180
REMARK   74  A    between atoms: _180  and  _181
REMARK   75  A    between atoms: _180  and  _183
REMARK   76  A    between atoms: _186  and  _188
REMARK   77  A    between atoms: _188  and  _189
REMARK   78  A    between atoms: _192  and  _194
REMARK   79  A    between atoms: _194  and  _195
REMARK   80  A    between atoms: _194  and  _197
REMARK   81  A    between atoms: _197  and  _198
REMARK   82  A    between atoms: _201  and  _203
REMARK   83  A    between atoms: _203  and  _204
REMARK   84  A    between atoms: _203  and  _206
REMARK   85  A    between atoms: _209  and  _211
REMARK   86  A    between atoms: _211  and  _212
REMARK   87  A    between atoms: _211  and  _214
REMARK   88  A    between atoms: _214  and  _215
REMARK   89  A    between atoms: _225  and  _227
REMARK   90  A    between atoms: _227  and  _228
REMARK   91  A    between atoms: _230  and  _232
REMARK   92  A    between atoms: _232  and  _233
REMARK   93  A    between atoms: _232  and  _235
REMARK   94  A    between atoms: _235  and  _236
REMARK   95  A    between atoms: _241  and  _242
REMARK   96  A    between atoms: _244  and  _246
REMARK   97  A    between atoms: _246  and  _247
REMARK   98  A    between atoms: _246  and  _249
REMARK   99  A    between atoms: _249  and  _250
REMARK  100  A    between atoms: _250  and  _251
REMARK  101  A    between atoms: _251  and  _252
REMARK  102  A    between atoms: _252  and  _253
REMARK  103  A    between atoms: _257  and  _259
REMARK  104  A    between atoms: _259  and  _260
REMARK  105  A    between atoms: _259  and  _262
REMARK  106  A    between atoms: _262  and  _263
REMARK  107  A    between atoms: _266  and  _268
REMARK  108  A    between atoms: _268  and  _269
REMARK  109  A    between atoms: _268  and  _271
REMARK  110  A    between atoms: _271  and  _272
REMARK  111  A    between atoms: _275  and  _277
REMARK  112  A    between atoms: _277  and  _278
REMARK  113  A    between atoms: _277  and  _280
REMARK  114  A    between atoms: _280  and  _281
REMARK  115  A    between atoms: _281  and  _282
REMARK  116  A    between atoms: _282  and  _283
REMARK  117  A    between atoms: _283  and  _284
REMARK  118  A    between atoms: _288  and  _290
REMARK  119  A    between atoms: _290  and  _291
REMARK  120  A    between atoms: _290  and  _293
REMARK  121  A    between atoms: _293  and  _294
REMARK  122  A    between atoms: _297  and  _299
REMARK  123  A    between atoms: _299  and  _300
REMARK  124  A    between atoms: _299  and  _302
REMARK  125  A    between atoms: _302  and  _303
REMARK  126  A    between atoms: _308  and  _309
REMARK  127  A    between atoms: _311  and  _313
REMARK  128  A    between atoms: _313  and  _314
REMARK  129  A    between atoms: _313  and  _316
REMARK  130  A    between atoms: _316  and  _317
REMARK  131  A    between atoms: _320  and  _322
REMARK  132  A    between atoms: _322  and  _323
REMARK  133  A    between atoms: _322  and  _325
REMARK  134  A    between atoms: _327  and  _329
REMARK  135  A    between atoms: _329  and  _330
REMARK  136  A    between atoms: _333  and  _335
REMARK  137  A    between atoms: _335  and  _336
REMARK  138  A    between atoms: _335  and  _338
REMARK  139  A    between atoms: _338  and  _339
REMARK  140  A    between atoms: _339  and  _340
REMARK  141  A    between atoms: _340  and  _341
REMARK  142  A    between atoms: _341  and  _342
REMARK  143  A    between atoms: _346  and  _348
REMARK  144  A    between atoms: _348  and  _349
REMARK  145  A    between atoms: _348  and  _351
REMARK  146  A    between atoms: _351  and  _352
REMARK  147  A    between atoms: _355  and  _357
REMARK  148  A    between atoms: _357  and  _358
REMARK  149  A    between atoms: _361  and  _363
REMARK  150  A    between atoms: _363  and  _364
REMARK  151  A    between atoms: _363  and  _366
REMARK  152  A    between atoms: _366  and  _367
REMARK  153  A    between atoms: _367  and  _490
REMARK  154  A    between atoms: _368  and  _370
REMARK  155  A    between atoms: _370  and  _371
REMARK  156  A    between atoms: _370  and  _373
REMARK  157  A    between atoms: _373  and  _374
REMARK  158  A    between atoms: _374  and  _375
REMARK  159  A    between atoms: _375  and  _376
REMARK  160  A    between atoms: _376  and  _377
REMARK  161  A    between atoms: _381  and  _383
REMARK  162  A    between atoms: _383  and  _384
REMARK  163  A    between atoms: _386  and  _388
REMARK  164  A    between atoms: _388  and  _389
REMARK  165  A    between atoms: _388  and  _391
REMARK  166  A    between atoms: _391  and  _392
REMARK  167  A    between atoms: _395  and  _397
REMARK  168  A    between atoms: _397  and  _398
REMARK  169  A    between atoms: _397  and  _400
REMARK  170  A    between atoms: _400  and  _401
REMARK  171  A    between atoms: _403  and  _405
REMARK  172  A    between atoms: _405  and  _406
REMARK  173  A    between atoms: _408  and  _410
REMARK  174  A    between atoms: _410  and  _411
REMARK  175  A    between atoms: _413  and  _415
REMARK  176  A    between atoms: _415  and  _416
REMARK  177  A    between atoms: _415  and  _418
REMARK  178  A    between atoms: _418  and  _419
REMARK  179  A    between atoms: _422  and  _424
REMARK  180  A    between atoms: _424  and  _425
REMARK  181  A    between atoms: _424  and  _427
REMARK  182  A    between atoms: _427  and  _428
REMARK  183  A    between atoms: _431  and  _433
REMARK  184  A    between atoms: _433  and  _434
REMARK  185  A    between atoms: _433  and  _436
REMARK  186  A    between atoms: _436  and  _437
REMARK  187  A    between atoms: _440  and  _442
REMARK  188  A    between atoms: _442  and  _443
REMARK  189  A    between atoms: _442  and  _445
REMARK  190  A    between atoms: _445  and  _446
REMARK  191  A    between atoms: _448  and  _450
REMARK  192  A    between atoms: _450  and  _451
REMARK  193  A    between atoms: _450  and  _453
REMARK  194  A    between atoms: _453  and  _454
REMARK  195  A    between atoms: _464  and  _466
REMARK  196  A    between atoms: _466  and  _467
REMARK  197  A    between atoms: _469  and  _471
REMARK  198  A    between atoms: _471  and  _472
REMARK  199  A    between atoms: _471  and  _474
REMARK  200  A    between atoms: _474  and  _475
REMARK  201  A    between atoms: _475  and  _476
REMARK  202  A    between atoms: _479  and  _481
REMARK  203  A    between atoms: _481  and  _482
REMARK  204  A    between atoms: _484  and  _486
REMARK  205  A    between atoms: _486  and  _487
REMARK  206  A    between atoms: _486  and  _489
REMARK  207  A    between atoms: _489  and  _490
REMARK  208  A    between atoms: _491  and  _493
REMARK  209  A    between atoms: _493  and  _494
REMARK  210  A    between atoms: _497  and  _499
REMARK  211  A    between atoms: _499  and  _500
REMARK  212  A    between atoms: _499  and  _502
REMARK  213  A    between atoms: _502  and  _503
REMARK  214  A    between atoms: _503  and  _504
REMARK  215  A    between atoms: _509  and  _511
REMARK  216  A    between atoms: _511  and  _512
REMARK  217  A    between atoms: _511  and  _514
REMARK  218  A    between atoms: _514  and  _515
REMARK  219  A    between atoms: _515  and  _516
REMARK  220  A    between atoms: _516  and  _517
REMARK  221  A    between atoms: _527  and  _528
REMARK  222  A    between atoms: _533  and  _535
REMARK  223  A    between atoms: _535  and  _536
REMARK  224  A    between atoms: _538  and  _540
REMARK  225  A    between atoms: _540  and  _541
REMARK  226  A    between atoms: _540  and  _543
REMARK  227  A    between atoms: _546  and  _548
REMARK  228  A    between atoms: _548  and  _549
REMARK  229  A    between atoms: _548  and  _551
REMARK  230  A    between atoms: _551  and  _552
REMARK  231  A    between atoms: _557  and  _558
REMARK  232  A    between atoms: _560  and  _562
REMARK  233  A    between atoms: _562  and  _563
REMARK  234  A    between atoms: _562  and  _565
REMARK  235  A    between atoms: _565  and  _566
REMARK                            x       y       z     vdW  Elec       q    Type
REMARK                         _______ _______ _______ _____ _____    ______ ____
ROOT
ATOM      1  CA  ALA A   1      30.914 -23.049  25.530  0.00  0.00    +0.133 C 
ATOM      2  CB  ALA A   1      32.194 -22.298  25.888  0.00  0.00    +0.027 C 
ENDROOT
BRANCH   1   3
ATOM      3  N   ALA A   1      31.222 -24.307  24.832  0.00  0.00    -0.239 NA
ATOM      4  H   ALA A   1      32.221 -24.575  24.728  0.00  0.00    +0.142 HD
ENDBRANCH   1   3
BRANCH   1   5
ATOM      5  C   ALA A   1      30.021 -22.173  24.722  0.00  0.00    +0.224 C 
ATOM      6  O   ALA A   1      29.031 -21.662  25.252  0.00  0.00    -0.287 OA
ENDBRANCH   1   5
TORSDOF 2
REMARK  Name = ../refined-set-2016/5e2p/5e2p_pocket.pdb
REMARK  235 active torsions:
REMARK  status: ('A' for Active; 'I' for Inactive)
REMARK    1  A    between atoms: _1  and  _5
REMARK    2  A    between atoms: _5  and  _6
REMARK    3  A    between atoms: _5  and  _8
REMARK    4  A    between atoms: _8  and  _9
REMARK    5  A    between atoms: _12  and  _14
REMARK    6  A    between atoms: _14  and  _15
REMARK    7  A    between atoms: _14  and  _17
REMARK    8  A    between atoms: _20  and  _22
REMARK    9  A    between atoms: _22  and  _23
REMARK   10  A    between atoms: _22  and  _25
REMARK   11  A    between atoms: _25  and  _26
REMARK   12  A    between atoms: _29  and  _31
REMARK   13  A    between atoms: _31  and  _32
REMARK   14  A    between atoms: _31  and  _34
REMARK   15  A    between atoms: _34  and  _35
REMARK   16  A    between atoms: _38  and  _40
REMARK   17  A    between atoms: _40  and  _41
REMARK   18  A    between atoms: _40  and  _43
REMARK   19  A    between atoms: _43  and  _44
REMARK   20  A    between atoms: _47  and  _49
REMARK   21  A    between atoms: _49  and  _50
REMARK   22  A    between atoms: _49  and  _52
REMARK   23  A    between atoms: _52  and  _53
REMARK   24  A    between atoms: _56  and  _58
REMARK   25  A    between atoms: _58  and  _59
REMARK   26  A    between atoms: _58  and  _61
REMARK   27  A    between atoms: _61  and  _62
REMARK   28  A    between atoms: _62  and  _63
REMARK   29  A    between atoms: _68  and  _70
REMARK   30  A    between atoms: _70  and  _71
REMARK   31  A    between atoms: _70  and  _73
REMARK   32  A    between atoms: _73  and  _74
REMARK   33  A    between atoms: _74  and  _75
REMARK   34  A    between atoms: _75  and  _76
REMARK   35  A    between atoms: _85  and  _87
REMARK   36  A    between atoms: _87  and  _88
REMARK   37  A    between atoms: _87  and  _90
REMARK   38  A    between atoms: _90  and  _91
REMARK   39  A    between atoms: _96  and  _98
REMARK   40  A    between atoms: _98  and  _99
REMARK   41  A    between atoms: _98  and  _101
REMARK   42  A    between atoms: _101  and  _102
REMARK   43  A    between atoms: _105  and  _107
REMARK   44  A    between atoms: _107  and  _108
REMARK   45  A    between atoms: _107  and  _110
REMARK   46  A    between atoms: _110  and  _111
REMARK   47  A    between atoms: _111  and  _146
REMARK   48  A    between atoms: _112  and  _114
REMARK   49  A    between atoms: _114  and  _115
REMARK   50  A    between atoms: _117  and  _119
REMARK   51  A    between atoms: _119  and  _120
REMARK   52  A    between atoms: _123  and  _125
REMARK   53  A    between atoms: _125  and  _126
REMARK   54  A    between atoms: _129  and  _131
REMARK   55  A    between atoms: _131  and  _132
REMARK   56  A    between atoms: _131  and  _134
REMARK   57  A    between atoms: _134  and  _135
REMARK   58  A    between atoms: _140  and  _142
REMARK   59  A    between atoms: _142  and  _143
REMARK   60  A    between atoms: _142  and  _145
REMARK   61  A    between atoms: _145  and  _146
REMARK   62  A    between atoms: _147  and  _149
REMARK   63  A    between atoms: _149  and  _150
REMARK   64  A    between atoms: _149  and  _152
REMARK   65  A    between atoms: _152  and  _153
REMARK   66  A    between atoms: _159  and  _161
REMARK   67  A    between atoms: _161  and  _162
REMARK   68  A    between atoms: _161  and  _164
REMARK   69  A    between atoms: _164  and  _165
REMARK   70  A    between atoms: _170  and  _171
REMARK   71  A    between atoms: _173  and  _175
REMARK   72  A    between atoms: _175  and  _176
REMARK   73  A    between atoms: _178  and  _180
REMARK   74  A    between atoms: _180  and  _181
REMARK   75  A    between atoms: _180  and  _183
REMARK   76  A    between atoms: _186  and  _188
REMARK   77  A    between atoms: _188  and  _189
REMARK   78  A    between atoms: _192  and  _194
REMARK   79  A    between atoms: _194  and  _195
REMARK   80  A    between atoms: _194  and  _197
REMARK   81  A    between atoms: _197  and  _198
REMARK   82  A    between atoms: _201  and  _203
REMARK   83  A    between atoms: _203  and  _204
REMARK   84  A    between atoms: _203  and  _206
REMARK   85  A    between atoms: _209  and  _211
REMARK   86  A    between atoms: _211  and  _212
REMARK   87  A    between atoms: _211  and  _214
REMARK   88  A    between atoms: _214  and  _215
REMARK   89  A    between atoms: _225  and  _227
REMARK   90  A    between atoms: _227  and  _228
REMARK   91  A    between atoms: _230  and  _232
REMARK   92  A    between atoms: _232  and  _233
REMARK   93  A    between atoms: _232  and  _235
REMARK   94  A    between atoms: _235  and  _236
REMARK   95  A    between atoms: _241  and  _242
REMARK   96  A    between atoms: _244  and  _246
REMARK   97  A    between atoms: _246  and  _247
REMARK   98  A    between atoms: _246  and  _249
REMARK   99  A    between atoms: _249  and  _250
REMARK  100  A    between atoms: _250  and  _251
REMARK  101  A    between atoms: _251  and  _252
REMARK  102  A    between atoms: _252  and  _253
REMARK  103  A    between atoms: _257  and  _259
REMARK  104  A    between atoms: _259  and  _260
REMARK  105  A    between atoms: _259  and  _262
REMARK  106  A    between atoms: _262  and  _263
REMARK  107  A    between atoms: _266  and  _268
REMARK  108  A    between atoms: _268  and  _269
REMARK  109  A    between atoms: _268  and  _271
REMARK  110  A    between atoms: _271  and  _272
REMARK  111  A    between atoms: _275  and  _277
REMARK  112  A    between atoms: _277  and  _278
REMARK  113  A    between atoms: _277  and  _280
REMARK  114  A    between atoms: _280  and  _281
REMARK  115  A    between atoms: _281  and  _282
REMARK  116  A    between atoms: _282  and  _283
REMARK  117  A    between atoms: _283  and  _284
REMARK  118  A    between atoms: _288  and  _290
REMARK  119  A    between atoms: _290  and  _291
REMARK  120  A    between atoms: _290  and  _293
REMARK  121  A    between atoms: _293  and  _294
REMARK  122  A    between atoms: _297  and  _299
REMARK  123  A    between atoms: _299  and  _300
REMARK  124  A    between atoms: _299  and  _302
REMARK  125  A    between atoms: _302  and  _303
REMARK  126  A    between atoms: _308  and  _309
REMARK  127  A    between atoms: _311  and  _313
REMARK  128  A    between atoms: _313  and  _314
REMARK  129  A    between atoms: _313  and  _316
REMARK  130  A    between atoms: _316  and  _317
REMARK  131  A    between atoms: _320  and  _322
REMARK  132  A    between atoms: _322  and  _323
REMARK  133  A    between atoms: _322  and  _325
REMARK  134  A    between atoms: _327  and  _329
REMARK  135  A    between atoms: _329  and  _330
REMARK  136  A    between atoms: _333  and  _335
REMARK  137  A    between atoms: _335  and  _336
REMARK  138  A    between atoms: _335  and  _338
REMARK  139  A    between atoms: _338  and  _339
REMARK  140  A    between atoms: _339  and  _340
REMARK  141  A    between atoms: _340  and  _341
REMARK  142  A    between atoms: _341  and  _342
REMARK  143  A    between atoms: _346  and  _348
REMARK  144  A    between atoms: _348  and  _349
REMARK  145  A    between atoms: _348  and  _351
REMARK  146  A    between atoms: _351  and  _352
REMARK  147  A    between atoms: _355  and  _357
REMARK  148  A    between atoms: _357  and  _358
REMARK  149  A    between atoms: _361  and  _363
REMARK  150  A    between atoms: _363  and  _364
REMARK  151  A    between atoms: _363  and  _366
REMARK  152  A    between atoms: _366  and  _367
REMARK  153  A    between atoms: _367  and  _490
REMARK  154  A    between atoms: _368  and  _370
REMARK  155  A    between atoms: _370  and  _371
REMARK  156  A    between atoms: _370  and  _373
REMARK  157  A    between atoms: _373  and  _374
REMARK  158  A    between atoms: _374  and  _375
REMARK  159  A    between atoms: _375  and  _376
REMARK  160  A    between atoms: _376  and  _377
REMARK  161  A    between atoms: _381  and  _383
REMARK  162  A    between atoms: _383  and  _384
REMARK  163  A    between atoms: _386  and  _388
REMARK  164  A    between atoms: _388  and  _389
REMARK  165  A    between atoms: _388  and  _391
REMARK  166  A    between atoms: _391  and  _392
REMARK  167  A    between atoms: _395  and  _397
REMARK  168  A    between atoms: _397  and  _398
REMARK  169  A    between atoms: _397  and  _400
REMARK  170  A    between atoms: _400  and  _401
REMARK  171  A    between atoms: _403  and  _405
REMARK  172  A    between atoms: _405  and  _406
REMARK  173  A    between atoms: _408  and  _410
REMARK  174  A    between atoms: _410  and  _411
REMARK  175  A    between atoms: _413  and  _415
REMARK  176  A    between atoms: _415  and  _416
REMARK  177  A    between atoms: _415  and  _418
REMARK  178  A    between atoms: _418  and  _419
REMARK  179  A    between atoms: _422  and  _424
REMARK  180  A    between atoms: _424  and  _425
REMARK  181  A    between atoms: _424  and  _427
REMARK  182  A    between atoms: _427  and  _428
REMARK  183  A    between atoms: _431  and  _433
REMARK  184  A    between atoms: _433  and  _434
REMARK  185  A    between atoms: _433  and  _436
REMARK  186  A    between atoms: _436  and  _437
REMARK  187  A    between atoms: _440  and  _442
REMARK  188  A    between atoms: _442  and  _443
REMARK  189  A    between atoms: _442  and  _445
REMARK  190  A    between atoms: _445  and  _446
REMARK  191  A    between atoms: _448  and  _450
REMARK  192  A    between atoms: _450  and  _451
REMARK  193  A    between atoms: _450  and  _453
REMARK  194  A    between atoms: _453  and  _454
REMARK  195  A    between atoms: _464  and  _466
REMARK  196  A    between atoms: _466  and  _467
REMARK  197  A    between atoms: _469  and  _471
REMARK  198  A    between atoms: _471  and  _472
REMARK  199  A    between atoms: _471  and  _474
REMARK  200  A    between atoms: _474  and  _475
REMARK  201  A    between atoms: _475  and  _476
REMARK  202  A    between atoms: _479  and  _481
REMARK  203  A    between atoms: _481  and  _482
REMARK  204  A    between atoms: _484  and  _486
REMARK  205  A    between atoms: _486  and  _487
REMARK  206  A    between atoms: _486  and  _489
REMARK  207  A    between atoms: _489  and  _490
REMARK  208  A    between atoms: _491  and  _493
REMARK  209  A    between atoms: _493  and  _494
REMARK  210  A    between atoms: _497  and  _499
REMARK  211  A    between atoms: _499  and  _500
REMARK  212  A    between atoms: _499  and  _502
REMARK  213  A    between atoms: _502  and  _503
REMARK  214  A    between atoms: _503  and  _504
REMARK  215  A    between atoms: _509  and  _511
REMARK  216  A    between atoms: _511  and  _512
REMARK  217  A    between atoms: _511  and  _514
REMARK  218  A    between atoms: _514  and  _515
REMARK  219  A    between atoms: _515  and  _516
REMARK  220  A    between atoms: _516  and  _517
REMARK  221  A    between atoms: _527  and  _528
REMARK  222  A    between atoms: _533  and  _535
REMARK  223  A    between atoms: _535  and  _536
REMARK  224  A    between atoms: _538  and  _540
REMARK  225  A    between atoms: _540  and  _541
REMARK  226  A    between atoms: _540  and  _543
REMARK  227  A    between atoms: _546  and  _548
REMARK  228  A    between atoms: _548  and  _549
REMARK  229  A    between atoms: _548  and  _551
REMARK  230  A    between atoms: _551  and  _552
REMARK  231  A    between atoms: _557  and  _558
REMARK  232  A    between atoms: _560  and  _562
REMARK  233  A    between atoms: _562  and  _563
REMARK  234  A    between atoms: _562  and  _565
REMARK  235  A    between atoms: _565  and  _566
REMARK                            x       y       z     vdW  Elec       q    Type
REMARK                         _______ _______ _______ _____ _____    ______ ____
ROOT
ATOM      1  CA  ASP A   1      28.630 -24.590  30.028  0.00  0.00    +0.144 C 
ENDROOT
BRANCH   1   2
ATOM      2  N   ASP A   1      27.230 -24.575  29.595  0.00  0.00    -0.239 NA
ATOM      3  H   ASP A   1      26.797 -23.673  29.312  0.00  0.00    +0.142 HD
ENDBRANCH   1   2
BRANCH   1   4
ATOM      4  C   ASP A   1      28.726 -24.509  31.536  0.00  0.00    +0.225 C 
ATOM      5  O   ASP A   1      29.139 -23.500  32.121  0.00  0.00    -0.287 OA
ENDBRANCH   1   4
BRANCH   1   6
ATOM      6  CB  ASP A   1      29.439 -23.494  29.309  0.00  0.00    +0.139 C 
BRANCH   6   7
ATOM      7  CG  ASP A   1      30.933 -23.672  29.441  0.00  0.00    +0.367 C 
ATOM      8  OD2 ASP A   1      31.362 -24.726  29.944  0.00  0.00    -0.246 OA
ATOM      9  OD1 ASP A   1      31.661 -22.716  29.161  0.00  0.00    -0.246 OA
ENDBRANCH   6   7
ENDBRANCH   1   6
TORSDOF 4
REMARK  Name = ../refined-set-2016/5e2p/5e2p_pocket.pdb
REMARK  235 active torsions:
REMARK  status: ('A' for Active; 'I' for Inactive)
REMARK    1  A    between atoms: _1  and  _5
REMARK    2  A    between atoms: _5  and  _6
REMARK    3  A    between atoms: _5  and  _8
REMARK    4  A    between atoms: _8  and  _9
REMARK    5  A    between atoms: _12  and  _14
REMARK    6  A    between atoms: _14  and  _15
REMARK    7  A    between atoms: _14  and  _17
REMARK    8  A    between atoms: _20  and  _22
REMARK    9  A    between atoms: _22  and  _23
REMARK   10  A    between atoms: _22  and  _25
REMARK   11  A    between atoms: _25  and  _26
REMARK   12  A    between atoms: _29  and  _31
REMARK   13  A    between atoms: _31  and  _32
REMARK   14  A    between atoms: _31  and  _34
REMARK   15  A    between atoms: _34  and  _35
REMARK   16  A    between atoms: _38  and  _40
REMARK   17  A    between atoms: _40  and  _41
REMARK   18  A    between atoms: _40  and  _43
REMARK   19  A    between atoms: _43  and  _44
REMARK   20  A    between atoms: _47  and  _49
REMARK   21  A    between atoms: _49  and  _50
REMARK   22  A    between atoms: _49  and  _52
REMARK   23  A    between atoms: _52  and  _53
REMARK   24  A    between atoms: _56  and  _58
REMARK   25  A    between atoms: _58  and  _59
REMARK   26  A    between atoms: _58  and  _61
REMARK   27  A    between atoms: _61  and  _62
REMARK   28  A    between atoms: _62  and  _63
REMARK   29  A    between atoms: _68  and  _70
REMARK   30  A    between atoms: _70  and  _71
REMARK   31  A    between atoms: _70  and  _73
REMARK   32  A    between atoms: _73  and  _74
REMARK   33  A    between atoms: _74  and  _75
REMARK   34  A    between atoms: _75  and  _76
REMARK   35  A    between atoms: _85  and  _87
REMARK   36  A    between atoms: _87  and  _88
REMARK   37  A    between atoms: _87  and  _90
REMARK   38  A    between atoms: _90  and  _91
REMARK   39  A    between atoms: _96  and  _98
REMARK   40  A    between atoms: _98  and  _99
REMARK   41  A    between atoms: _98  and  _101
REMARK   42  A    between atoms: _101  and  _102
REMARK   43  A    between atoms: _105  and  _107
REMARK   44  A    between atoms: _107  and  _108
REMARK   45  A    between atoms: _107  and  _110
REMARK   46  A    between atoms: _110  and  _111
REMARK   47  A    between atoms: _111  and  _146
REMARK   48  A    between atoms: _112  and  _114
REMARK   49  A    between atoms: _114  and  _115
REMARK   50  A    between atoms: _117  and  _119
REMARK   51  A    between atoms: _119  and  _120
REMARK   52  A    between atoms: _123  and  _125
REMARK   53  A    between atoms: _125  and  _126
REMARK   54  A    between atoms: _129  and  _131
REMARK   55  A    between atoms: _131  and  _132
REMARK   56  A    between atoms: _131  and  _134
REMARK   57  A    between atoms: _134  and  _135
REMARK   58  A    between atoms: _140  and  _142
REMARK   59  A    between atoms: _142  and  _143
REMARK   60  A    between atoms: _142  and  _145
REMARK   61  A    between atoms: _145  and  _146
REMARK   62  A    between atoms: _147  and  _149
REMARK   63  A    between atoms: _149  and  _150
REMARK   64  A    between atoms: _149  and  _152
REMARK   65  A    between atoms: _152  and  _153
REMARK   66  A    between atoms: _159  and  _161
REMARK   67  A    between atoms: _161  and  _162
REMARK   68  A    between atoms: _161  and  _164
REMARK   69  A    between atoms: _164  and  _165
REMARK   70  A    between atoms: _170  and  _171
REMARK   71  A    between atoms: _173  and  _175
REMARK   72  A    between atoms: _175  and  _176
REMARK   73  A    between atoms: _178  and  _180
REMARK   74  A    between atoms: _180  and  _181
REMARK   75  A    between atoms: _180  and  _183
REMARK   76  A    between atoms: _186  and  _188
REMARK   77  A    between atoms: _188  and  _189
REMARK   78  A    between atoms: _192  and  _194
REMARK   79  A    between atoms: _194  and  _195
REMARK   80  A    between atoms: _194  and  _197
REMARK   81  A    between atoms: _197  and  _198
REMARK   82  A    between atoms: _201  and  _203
REMARK   83  A    between atoms: _203  and  _204
REMARK   84  A    between atoms: _203  and  _206
REMARK   85  A    between atoms: _209  and  _211
REMARK   86  A    between atoms: _211  and  _212
REMARK   87  A    between atoms: _211  and  _214
REMARK   88  A    between atoms: _214  and  _215
REMARK   89  A    between atoms: _225  and  _227
REMARK   90  A    between atoms: _227  and  _228
REMARK   91  A    between atoms: _230  and  _232
REMARK   92  A    between atoms: _232  and  _233
REMARK   93  A    between atoms: _232  and  _235
REMARK   94  A    between atoms: _235  and  _236
REMARK   95  A    between atoms: _241  and  _242
REMARK   96  A    between atoms: _244  and  _246
REMARK   97  A    between atoms: _246  and  _247
REMARK   98  A    between atoms: _246  and  _249
REMARK   99  A    between atoms: _249  and  _250
REMARK  100  A    between atoms: _250  and  _251
REMARK  101  A    between atoms: _251  and  _252
REMARK  102  A    between atoms: _252  and  _253
REMARK  103  A    between atoms: _257  and  _259
REMARK  104  A    between atoms: _259  and  _260
REMARK  105  A    between atoms: _259  and  _262
REMARK  106  A    between atoms: _262  and  _263
REMARK  107  A    between atoms: _266  and  _268
REMARK  108  A    between atoms: _268  and  _269
REMARK  109  A    between atoms: _268  and  _271
REMARK  110  A    between atoms: _271  and  _272
REMARK  111  A    between atoms: _275  and  _277
REMARK  112  A    between atoms: _277  and  _278
REMARK  113  A    between atoms: _277  and  _280
REMARK  114  A    between atoms: _280  and  _281
REMARK  115  A    between atoms: _281  and  _282
REMARK  116  A    between atoms: _282  and  _283
REMARK  117  A    between atoms: _283  and  _284
REMARK  118  A    between atoms: _288  and  _290
REMARK  119  A    between atoms: _290  and  _291
REMARK  120  A    between atoms: _290  and  _293
REMARK  121  A    between atoms: _293  and  _294
REMARK  122  A    between atoms: _297  and  _299
REMARK  123  A    between atoms: _299  and  _300
REMARK  124  A    between atoms: _299  and  _302
REMARK  125  A    between atoms: _302  and  _303
REMARK  126  A    between atoms: _308  and  _309
REMARK  127  A    between atoms: _311  and  _313
REMARK  128  A    between atoms: _313  and  _314
REMARK  129  A    between atoms: _313  and  _316
REMARK  130  A    between atoms: _316  and  _317
REMARK  131  A    between atoms: _320  and  _322
REMARK  132  A    between atoms: _322  and  _323
REMARK  133  A    between atoms: _322  and  _325
REMARK  134  A    between atoms: _327  and  _329
REMARK  135  A    between atoms: _329  and  _330
REMARK  136  A    between atoms: _333  and  _335
REMARK  137  A    between atoms: _335  and  _336
REMARK  138  A    between atoms: _335  and  _338
REMARK  139  A    between atoms: _338  and  _339
REMARK  140  A    between atoms: _339  and  _340
REMARK  141  A    between atoms: _340  and  _341
REMARK  142  A    between atoms: _341  and  _342
REMARK  143  A    between atoms: _346  and  _348
REMARK  144  A    between atoms: _348  and  _349
REMARK  145  A    between atoms: _348  and  _351
REMARK  146  A    between atoms: _351  and  _352
REMARK  147  A    between atoms: _355  and  _357
REMARK  148  A    between atoms: _357  and  _358
REMARK  149  A    between atoms: _361  and  _363
REMARK  150  A    between atoms: _363  and  _364
REMARK  151  A    between atoms: _363  and  _366
REMARK  152  A    between atoms: _366  and  _367
REMARK  153  A    between atoms: _367  and  _490
REMARK  154  A    between atoms: _368  and  _370
REMARK  155  A    between atoms: _370  and  _371
REMARK  156  A    between atoms: _370  and  _373
REMARK  157  A    between atoms: _373  and  _374
REMARK  158  A    between atoms: _374  and  _375
REMARK  159  A    between atoms: _375  and  _376
REMARK  160  A    between atoms: _376  and  _377
REMARK  161  A    between atoms: _381  and  _383
REMARK  162  A    between atoms: _383  and  _384
REMARK  163  A    between atoms: _386  and  _388
REMARK  164  A    between atoms: _388  and  _389
REMARK  165  A    between atoms: _388  and  _391
REMARK  166  A    between atoms: _391  and  _392
REMARK  167  A    between atoms: _395  and  _397
REMARK  168  A    between atoms: _397  and  _398
REMARK  169  A    between atoms: _397  and  _400
REMARK  170  A    between atoms: _400  and  _401
REMARK  171  A    between atoms: _403  and  _405
REMARK  172  A    between atoms: _405  and  _406
REMARK  173  A    between atoms: _408  and  _410
REMARK  174  A    between atoms: _410  and  _411
REMARK  175  A    between atoms: _413  and  _415
REMARK  176  A    between atoms: _415  and  _416
REMARK  177  A    between atoms: _415  and  _418
REMARK  178  A    between atoms: _418  and  _419
REMARK  179  A    between atoms: _422  and  _424
REMARK  180  A    between atoms: _424  and  _425
REMARK  181  A    between atoms: _424  and  _427
REMARK  182  A    between atoms: _427  and  _428
REMARK  183  A    between atoms: _431  and  _433
REMARK  184  A    between atoms: _433  and  _434
REMARK  185  A    between atoms: _433  and  _436
REMARK  186  A    between atoms: _436  and  _437
REMARK  187  A    between atoms: _440  and  _442
REMARK  188  A    between atoms: _442  and  _443
REMARK  189  A    between atoms: _442  and  _445
REMARK  190  A    between atoms: _445  and  _446
REMARK  191  A    between atoms: _448  and  _450
REMARK  192  A    between atoms: _450  and  _451
REMARK  193  A    between atoms: _450  and  _453
REMARK  194  A    between atoms: _453  and  _454
REMARK  195  A    between atoms: _464  and  _466
REMARK  196  A    between atoms: _466  and  _467
REMARK  197  A    between atoms: _469  and  _471
REMARK  198  A    between atoms: _471  and  _472
REMARK  199  A    between atoms: _471  and  _474
REMARK  200  A    between atoms: _474  and  _475
REMARK  201  A    between atoms: _475  and  _476
REMARK  202  A    between atoms: _479  and  _481
REMARK  203  A    between atoms: _481  and  _482
REMARK  204  A    between atoms: _484  and  _486
REMARK  205  A    between atoms: _486  and  _487
REMARK  206  A    between atoms: _486  and  _489
REMARK  207  A    between atoms: _489  and  _490
REMARK  208  A    between atoms: _491  and  _493
REMARK  209  A    between atoms: _493  and  _494
REMARK  210  A    between atoms: _497  and  _499
REMARK  211  A    between atoms: _499  and  _500
REMARK  212  A    between atoms: _499  and  _502
REMARK  213  A    between atoms: _502  and  _503
REMARK  214  A    between atoms: _503  and  _504
REMARK  215  A    between atoms: _509  and  _511
REMARK  216  A    between atoms: _511  and  _512
REMARK  217  A    between atoms: _511  and  _514
REMARK  218  A    between atoms: _514  and  _515
REMARK  219  A    between atoms: _515  and  _516
REMARK  220  A    between atoms: _516  and  _517
REMARK  221  A    between atoms: _527  and  _528
REMARK  222  A    between atoms: _533  and  _535
REMARK  223  A    between atoms: _535  and  _536
REMARK  224  A    between atoms: _538  and  _540
REMARK  225  A    between atoms: _540  and  _541
REMARK  226  A    between atoms: _540  and  _543
REMARK  227  A    between atoms: _546  and  _548
REMARK  228  A    between atoms: _548  and  _549
REMARK  229  A    between atoms: _548  and  _551
REMARK  230  A    between atoms: _551  and  _552
REMARK  231  A    between atoms: _557  and  _558
REMARK  232  A    between atoms: _560  and  _562
REMARK  233  A    between atoms: _562  and  _563
REMARK  234  A    between atoms: _562  and  _565
REMARK  235  A    between atoms: _565  and  _566
REMARK                            x       y       z     vdW  Elec       q    Type
REMARK                         _______ _______ _______ _____ _____    ______ ____
ROOT
ATOM      1  CA  VAL A   1      34.518 -10.902  37.639  0.00  0.00    +0.133 C 
ENDROOT
BRANCH   1   2
ATOM      2  CB  VAL A   1      34.530 -10.966  36.084  0.00  0.00    +0.023 C 
ATOM      3  CG2 VAL A   1      34.983 -12.338  35.614  0.00  0.00    +0.002 C 
ATOM      4  CG1 VAL A   1      35.388  -9.865  35.460  0.00  0.00    +0.002 C 
ENDBRANCH   1   2
BRANCH   1   5
ATOM      5  N   VAL A   1      33.877  -9.714  38.201  0.00  0.00    -0.239 NA
ATOM      6  H   VAL A   1      34.208  -8.790  37.857  0.00  0.00    +0.142 HD
ENDBRANCH   1   5
BRANCH   1   7
ATOM      7  C   VAL A   1      35.900 -11.009  38.268  0.00  0.00    +0.224 C 
ATOM      8  O   VAL A   1      36.608 -10.018  38.365  0.00  0.00    -0.287 OA
ENDBRANCH   1   7
TORSDOF 3
REMARK  Name = ../refined-set-2016/5e2p/5e2p_pocket.pdb
REMARK  235 active torsions:
REMARK  status: ('A' for Active; 'I' for Inactive)
REMARK    1  A    between atoms: _1  and  _5
REMARK    2  A    between atoms: _5  and  _6
REMARK    3  A    between atoms: _5  and  _8
REMARK    4  A    between atoms: _8  and  _9
REMARK    5  A    between atoms: _12  and  _14
REMARK    6  A    between atoms: _14  and  _15
REMARK    7  A    between atoms: _14  and  _17
REMARK    8  A    between atoms: _20  and  _22
REMARK    9  A    between atoms: _22  and  _23
REMARK   10  A    between atoms: _22  and  _25
REMARK   11  A    between atoms: _25  and  _26
REMARK   12  A    between atoms: _29  and  _31
REMARK   13  A    between atoms: _31  and  _32
REMARK   14  A    between atoms: _31  and  _34
REMARK   15  A    between atoms: _34  and  _35
REMARK   16  A    between atoms: _38  and  _40
REMARK   17  A    between atoms: _40  and  _41
REMARK   18  A    between atoms: _40  and  _43
REMARK   19  A    between atoms: _43  and  _44
REMARK   20  A    between atoms: _47  and  _49
REMARK   21  A    between atoms: _49  and  _50
REMARK   22  A    between atoms: _49  and  _52
REMARK   23  A    between atoms: _52  and  _53
REMARK   24  A    between atoms: _56  and  _58
REMARK   25  A    between atoms: _58  and  _59
REMARK   26  A    between atoms: _58  and  _61
REMARK   27  A    between atoms: _61  and  _62
REMARK   28  A    between atoms: _62  and  _63
REMARK   29  A    between atoms: _68  and  _70
REMARK   30  A    between atoms: _70  and  _71
REMARK   31  A    between atoms: _70  and  _73
REMARK   32  A    between atoms: _73  and  _74
REMARK   33  A    between atoms: _74  and  _75
REMARK   34  A    between atoms: _75  and  _76
REMARK   35  A    between atoms: _85  and  _87
REMARK   36  A    between atoms: _87  and  _88
REMARK   37  A    between atoms: _87  and  _90
REMARK   38  A    between atoms: _90  and  _91
REMARK   39  A    between atoms: _96  and  _98
REMARK   40  A    between atoms: _98  and  _99
REMARK   41  A    between atoms: _98  and  _101
REMARK   42  A    between atoms: _101  and  _102
REMARK   43  A    between atoms: _105  and  _107
REMARK   44  A    between atoms: _107  and  _108
REMARK   45  A    between atoms: _107  and  _110
REMARK   46  A    between atoms: _110  and  _111
REMARK   47  A    between atoms: _111  and  _146
REMARK   48  A    between atoms: _112  and  _114
REMARK   49  A    between atoms: _114  and  _115
REMARK   50  A    between atoms: _117  and  _119
REMARK   51  A    between atoms: _119  and  _120
REMARK   52  A    between atoms: _123  and  _125
REMARK   53  A    between atoms: _125  and  _126
REMARK   54  A    between atoms: _129  and  _131
REMARK   55  A    between atoms: _131  and  _132
REMARK   56  A    between atoms: _131  and  _134
REMARK   57  A    between atoms: _134  and  _135
REMARK   58  A    between atoms: _140  and  _142
REMARK   59  A    between atoms: _142  and  _143
REMARK   60  A    between atoms: _142  and  _145
REMARK   61  A    between atoms: _145  and  _146
REMARK   62  A    between atoms: _147  and  _149
REMARK   63  A    between atoms: _149  and  _150
REMARK   64  A    between atoms: _149  and  _152
REMARK   65  A    between atoms: _152  and  _153
REMARK   66  A    between atoms: _159  and  _161
REMARK   67  A    between atoms: _161  and  _162
REMARK   68  A    between atoms: _161  and  _164
REMARK   69  A    between atoms: _164  and  _165
REMARK   70  A    between atoms: _170  and  _171
REMARK   71  A    between atoms: _173  and  _175
REMARK   72  A    between atoms: _175  and  _176
REMARK   73  A    between atoms: _178  and  _180
REMARK   74  A    between atoms: _180  and  _181
REMARK   75  A    between atoms: _180  and  _183
REMARK   76  A    between atoms: _186  and  _188
REMARK   77  A    between atoms: _188  and  _189
REMARK   78  A    between atoms: _192  and  _194
REMARK   79  A    between atoms: _194  and  _195
REMARK   80  A    between atoms: _194  and  _197
REMARK   81  A    between atoms: _197  and  _198
REMARK   82  A    between atoms: _201  and  _203
REMARK   83  A    between atoms: _203  and  _204
REMARK   84  A    between atoms: _203  and  _206
REMARK   85  A    between atoms: _209  and  _211
REMARK   86  A    between atoms: _211  and  _212
REMARK   87  A    between atoms: _211  and  _214
REMARK   88  A    between atoms: _214  and  _215
REMARK   89  A    between atoms: _225  and  _227
REMARK   90  A    between atoms: _227  and  _228
REMARK   91  A    between atoms: _230  and  _232
REMARK   92  A    between atoms: _232  and  _233
REMARK   93  A    between atoms: _232  and  _235
REMARK   94  A    between atoms: _235  and  _236
REMARK   95  A    between atoms: _241  and  _242
REMARK   96  A    between atoms: _244  and  _246
REMARK   97  A    between atoms: _246  and  _247
REMARK   98  A    between atoms: _246  and  _249
REMARK   99  A    between atoms: _249  and  _250
REMARK  100  A    between atoms: _250  and  _251
REMARK  101  A    between atoms: _251  and  _252
REMARK  102  A    between atoms: _252  and  _253
REMARK  103  A    between atoms: _257  and  _259
REMARK  104  A    between atoms: _259  and  _260
REMARK  105  A    between atoms: _259  and  _262
REMARK  106  A    between atoms: _262  and  _263
REMARK  107  A    between atoms: _266  and  _268
REMARK  108  A    between atoms: _268  and  _269
REMARK  109  A    between atoms: _268  and  _271
REMARK  110  A    between atoms: _271  and  _272
REMARK  111  A    between atoms: _275  and  _277
REMARK  112  A    between atoms: _277  and  _278
REMARK  113  A    between atoms: _277  and  _280
REMARK  114  A    between atoms: _280  and  _281
REMARK  115  A    between atoms: _281  and  _282
REMARK  116  A    between atoms: _282  and  _283
REMARK  117  A    between atoms: _283  and  _284
REMARK  118  A    between atoms: _288  and  _290
REMARK  119  A    between atoms: _290  and  _291
REMARK  120  A    between atoms: _290  and  _293
REMARK  121  A    between atoms: _293  and  _294
REMARK  122  A    between atoms: _297  and  _299
REMARK  123  A    between atoms: _299  and  _300
REMARK  124  A    between atoms: _299  and  _302
REMARK  125  A    between atoms: _302  and  _303
REMARK  126  A    between atoms: _308  and  _309
REMARK  127  A    between atoms: _311  and  _313
REMARK  128  A    between atoms: _313  and  _314
REMARK  129  A    between atoms: _313  and  _316
REMARK  130  A    between atoms: _316  and  _317
REMARK  131  A    between atoms: _320  and  _322
REMARK  132  A    between atoms: _322  and  _323
REMARK  133  A    between atoms: _322  and  _325
REMARK  134  A    between atoms: _327  and  _329
REMARK  135  A    between atoms: _329  and  _330
REMARK  136  A    between atoms: _333  and  _335
REMARK  137  A    between atoms: _335  and  _336
REMARK  138  A    between atoms: _335  and  _338
REMARK  139  A    between atoms: _338  and  _339
REMARK  140  A    between atoms: _339  and  _340
REMARK  141  A    between atoms: _340  and  _341
REMARK  142  A    between atoms: _341  and  _342
REMARK  143  A    between atoms: _346  and  _348
REMARK  144  A    between atoms: _348  and  _349
REMARK  145  A    between atoms: _348  and  _351
REMARK  146  A    between atoms: _351  and  _352
REMARK  147  A    between atoms: _355  and  _357
REMARK  148  A    between atoms: _357  and  _358
REMARK  149  A    between atoms: _361  and  _363
REMARK  150  A    between atoms: _363  and  _364
REMARK  151  A    between atoms: _363  and  _366
REMARK  152  A    between atoms: _366  and  _367
REMARK  153  A    between atoms: _367  and  _490
REMARK  154  A    between atoms: _368  and  _370
REMARK  155  A    between atoms: _370  and  _371
REMARK  156  A    between atoms: _370  and  _373
REMARK  157  A    between atoms: _373  and  _374
REMARK  158  A    between atoms: _374  and  _375
REMARK  159  A    between atoms: _375  and  _376
REMARK  160  A    between atoms: _376  and  _377
REMARK  161  A    between atoms: _381  and  _383
REMARK  162  A    between atoms: _383  and  _384
REMARK  163  A    between atoms: _386  and  _388
REMARK  164  A    between atoms: _388  and  _389
REMARK  165  A    between atoms: _388  and  _391
REMARK  166  A    between atoms: _391  and  _392
REMARK  167  A    between atoms: _395  and  _397
REMARK  168  A    between atoms: _397  and  _398
REMARK  169  A    between atoms: _397  and  _400
REMARK  170  A    between atoms: _400  and  _401
REMARK  171  A    between atoms: _403  and  _405
REMARK  172  A    between atoms: _405  and  _406
REMARK  173  A    between atoms: _408  and  _410
REMARK  174  A    between atoms: _410  and  _411
REMARK  175  A    between atoms: _413  and  _415
REMARK  176  A    between atoms: _415  and  _416
REMARK  177  A    between atoms: _415  and  _418
REMARK  178  A    between atoms: _418  and  _419
REMARK  179  A    between atoms: _422  and  _424
REMARK  180  A    between atoms: _424  and  _425
REMARK  181  A    between atoms: _424  and  _427
REMARK  182  A    between atoms: _427  and  _428
REMARK  183  A    between atoms: _431  and  _433
REMARK  184  A    between atoms: _433  and  _434
REMARK  185  A    between atoms: _433  and  _436
REMARK  186  A    between atoms: _436  and  _437
REMARK  187  A    between atoms: _440  and  _442
REMARK  188  A    between atoms: _442  and  _443
REMARK  189  A    between atoms: _442  and  _445
REMARK  190  A    between atoms: _445  and  _446
REMARK  191  A    between atoms: _448  and  _450
REMARK  192  A    between atoms: _450  and  _451
REMARK  193  A    between atoms: _450  and  _453
REMARK  194  A    between atoms: _453  and  _454
REMARK  195  A    between atoms: _464  and  _466
REMARK  196  A    between atoms: _466  and  _467
REMARK  197  A    between atoms: _469  and  _471
REMARK  198  A    between atoms: _471  and  _472
REMARK  199  A    between atoms: _471  and  _474
REMARK  200  A    between atoms: _474  and  _475
REMARK  201  A    between atoms: _475  and  _476
REMARK  202  A    between atoms: _479  and  _481
REMARK  203  A    between atoms: _481  and  _482
REMARK  204  A    between atoms: _484  and  _486
REMARK  205  A    between atoms: _486  and  _487
REMARK  206  A    between atoms: _486  and  _489
REMARK  207  A    between atoms: _489  and  _490
REMARK  208  A    between atoms: _491  and  _493
REMARK  209  A    between atoms: _493  and  _494
REMARK  210  A    between atoms: _497  and  _499
REMARK  211  A    between atoms: _499  and  _500
REMARK  212  A    between atoms: _499  and  _502
REMARK  213  A    between atoms: _502  and  _503
REMARK  214  A    between atoms: _503  and  _504
REMARK  215  A    between atoms: _509  and  _511
REMARK  216  A    between atoms: _511  and  _512
REMARK  217  A    between atoms: _511  and  _514
REMARK  218  A    between atoms: _514  and  _515
REMARK  219  A    between atoms: _515  and  _516
REMARK  220  A    between atoms: _516  and  _517
REMARK  221  A    between atoms: _527  and  _528
REMARK  222  A    between atoms: _533  and  _535
REMARK  223  A    between atoms: _535  and  _536
REMARK  224  A    between atoms: _538  and  _540
REMARK  225  A    between atoms: _540  and  _541
REMARK  226  A    between atoms: _540  and  _543
REMARK  227  A    between atoms: _546  and  _548
REMARK  228  A    between atoms: _548  and  _549
REMARK  229  A    between atoms: _548  and  _551
REMARK  230  A    between atoms: _551  and  _552
REMARK  231  A    between atoms: _557  and  _558
REMARK  232  A    between atoms: _560  and  _562
REMARK  233  A    between atoms: _562  and  _563
REMARK  234  A    between atoms: _562  and  _565
REMARK  235  A    between atoms: _565  and  _566
REMARK                            x       y       z     vdW  Elec       q    Type
REMARK                         _______ _______ _______ _____ _____    ______ ____
ROOT
ATOM      1  C   TRP A   1      44.487 -15.558  36.715  0.00  0.00    +0.239 C 
ATOM      2  O   TRP A   1      45.628 -15.827  36.392  0.00  0.00    -0.274 OA
ATOM      3  N   GLY A   2      43.558 -15.287  35.825  0.00  0.00    -0.296 N 
ATOM      4  H   GLY A   2      42.600 -15.047  36.150  0.00  0.00    +0.150 HD
ENDROOT
BRANCH   1   5
ATOM      5  CA  TRP A   1      44.070 -15.529  38.225  0.00  0.00    +0.149 C 
BRANCH   5   6
ATOM      6  N   TRP A   1      42.603 -15.574  38.366  0.00  0.00    -0.238 NA
ATOM      7  H   TRP A   1      42.125 -16.496  38.310  0.00  0.00    +0.142 HD
ENDBRANCH   5   6
BRANCH   5   8
ATOM      8  CB  TRP A   1      44.725 -16.701  38.972  0.00  0.00    +0.054 C 
BRANCH   8   9
ATOM      9  CG  TRP A   1      44.619 -16.618  40.468  0.00  0.00    -0.002 A 
ATOM     10  CD1 TRP A   1      45.515 -16.047  41.330  0.00  0.00    +0.068 A 
ATOM     11  NE1 TRP A   1      45.097 -16.230  42.638  0.00  0.00    -0.352 N 
ATOM     12  HE1 TRP A   1      45.583 -15.870  43.484  0.00  0.00    +0.166 HD
ATOM     13  CE2 TRP A   1      43.935 -16.965  42.635  0.00  0.00    +0.056 A 
ATOM     14  CZ2 TRP A   1      43.142 -17.418  43.700  0.00  0.00    +0.017 A 
ATOM     15  CH2 TRP A   1      42.002 -18.123  43.393  0.00  0.00    +0.001 A 
ATOM     16  CZ3 TRP A   1      41.642 -18.394  42.057  0.00  0.00    +0.000 A 
ATOM     17  CE3 TRP A   1      42.443 -17.978  40.997  0.00  0.00    +0.001 A 
ATOM     18  CD2 TRP A   1      43.600 -17.219  41.281  0.00  0.00    +0.013 A 
ENDBRANCH   8   9
ENDBRANCH   5   8
ENDBRANCH   1   5
BRANCH   3  19
ATOM     19  CA  GLY A   2      43.837 -15.315  34.398  0.00  0.00    +0.176 C 
BRANCH  19  20
ATOM     20  C   GLY A   2      44.656 -14.138  33.897  0.00  0.00    +0.243 C 
ATOM     21  O   GLY A   2      44.973 -13.204  34.644  0.00  0.00    -0.273 OA
ATOM     22  N   TYR A   3      44.953 -14.169  32.602  0.00  0.00    -0.298 N 
ATOM     23  H   TYR A   3      44.564 -14.961  32.051  0.00  0.00    +0.150 HD
BRANCH  22  24
ATOM     24  CA  TYR A   3      45.772 -13.200  31.876  0.00  0.00    +0.141 C 
BRANCH  24  25
ATOM     25  C   TYR A   3      45.223 -11.797  32.007  0.00  0.00    +0.227 C 
ATOM     26  O   TYR A   3      44.008 -11.637  32.075  0.00  0.00    -0.286 OA
ENDBRANCH  24  25
BRANCH  24  27
ATOM     27  CB  TYR A   3      45.723 -13.541  30.377  0.00  0.00    +0.054 C 
BRANCH  27  28
ATOM     28  CG  TYR A   3      46.473 -14.750  29.868  0.00  0.00    -0.020 A 
ATOM     29  CD2 TYR A   3      46.810 -15.809  30.718  0.00  0.00    -0.001 A 
ATOM     30  CE2 TYR A   3      47.446 -16.953  30.230  0.00  0.00    +0.036 A 
ATOM     31  CZ  TYR A   3      47.747 -17.046  28.873  0.00  0.00    +0.134 A 
ATOM     32  CE1 TYR A   3      47.418 -16.013  28.018  0.00  0.00    +0.036 A 
ATOM     33  CD1 TYR A   3      46.773 -14.880  28.516  0.00  0.00    -0.001 A 
BRANCH  31  34
ATOM     34  OH  TYR A   3      48.391 -18.126  28.329  0.00  0.00    -0.506 OA
ATOM     35  HH  TYR A   3      48.571 -18.793  29.038  0.00  0.00    +0.292 HD
ENDBRANCH  31  34
ENDBRANCH  27  28
ENDBRANCH  24  27
ENDBRANCH  22  24
ENDBRANCH  19  20
ENDBRANCH   3  19
TORSDOF 11
REMARK  Name = ../refined-set-2016/5e2p/5e2p_pocket.pdb
REMARK  235 active torsions:
REMARK  status: ('A' for Active; 'I' for Inactive)
REMARK    1  A    between atoms: _1  and  _5
REMARK    2  A    between atoms: _5  and  _6
REMARK    3  A    between atoms: _5  and  _8
REMARK    4  A    between atoms: _8  and  _9
REMARK    5  A    between atoms: _12  and  _14
REMARK    6  A    between atoms: _14  and  _15
REMARK    7  A    between atoms: _14  and  _17
REMARK    8  A    between atoms: _20  and  _22
REMARK    9  A    between atoms: _22  and  _23
REMARK   10  A    between atoms: _22  and  _25
REMARK   11  A    between atoms: _25  and  _26
REMARK   12  A    between atoms: _29  and  _31
REMARK   13  A    between atoms: _31  and  _32
REMARK   14  A    between atoms: _31  and  _34
REMARK   15  A    between atoms: _34  and  _35
REMARK   16  A    between atoms: _38  and  _40
REMARK   17  A    between atoms: _40  and  _41
REMARK   18  A    between atoms: _40  and  _43
REMARK   19  A    between atoms: _43  and  _44
REMARK   20  A    between atoms: _47  and  _49
REMARK   21  A    between atoms: _49  and  _50
REMARK   22  A    between atoms: _49  and  _52
REMARK   23  A    between atoms: _52  and  _53
REMARK   24  A    between atoms: _56  and  _58
REMARK   25  A    between atoms: _58  and  _59
REMARK   26  A    between atoms: _58  and  _61
REMARK   27  A    between atoms: _61  and  _62
REMARK   28  A    between atoms: _62  and  _63
REMARK   29  A    between atoms: _68  and  _70
REMARK   30  A    between atoms: _70  and  _71
REMARK   31  A    between atoms: _70  and  _73
REMARK   32  A    between atoms: _73  and  _74
REMARK   33  A    between atoms: _74  and  _75
REMARK   34  A    between atoms: _75  and  _76
REMARK   35  A    between atoms: _85  and  _87
REMARK   36  A    between atoms: _87  and  _88
REMARK   37  A    between atoms: _87  and  _90
REMARK   38  A    between atoms: _90  and  _91
REMARK   39  A    between atoms: _96  and  _98
REMARK   40  A    between atoms: _98  and  _99
REMARK   41  A    between atoms: _98  and  _101
REMARK   42  A    between atoms: _101  and  _102
REMARK   43  A    between atoms: _105  and  _107
REMARK   44  A    between atoms: _107  and  _108
REMARK   45  A    between atoms: _107  and  _110
REMARK   46  A    between atoms: _110  and  _111
REMARK   47  A    between atoms: _111  and  _146
REMARK   48  A    between atoms: _112  and  _114
REMARK   49  A    between atoms: _114  and  _115
REMARK   50  A    between atoms: _117  and  _119
REMARK   51  A    between atoms: _119  and  _120
REMARK   52  A    between atoms: _123  and  _125
REMARK   53  A    between atoms: _125  and  _126
REMARK   54  A    between atoms: _129  and  _131
REMARK   55  A    between atoms: _131  and  _132
REMARK   56  A    between atoms: _131  and  _134
REMARK   57  A    between atoms: _134  and  _135
REMARK   58  A    between atoms: _140  and  _142
REMARK   59  A    between atoms: _142  and  _143
REMARK   60  A    between atoms: _142  and  _145
REMARK   61  A    between atoms: _145  and  _146
REMARK   62  A    between atoms: _147  and  _149
REMARK   63  A    between atoms: _149  and  _150
REMARK   64  A    between atoms: _149  and  _152
REMARK   65  A    between atoms: _152  and  _153
REMARK   66  A    between atoms: _159  and  _161
REMARK   67  A    between atoms: _161  and  _162
REMARK   68  A    between atoms: _161  and  _164
REMARK   69  A    between atoms: _164  and  _165
REMARK   70  A    between atoms: _170  and  _171
REMARK   71  A    between atoms: _173  and  _175
REMARK   72  A    between atoms: _175  and  _176
REMARK   73  A    between atoms: _178  and  _180
REMARK   74  A    between atoms: _180  and  _181
REMARK   75  A    between atoms: _180  and  _183
REMARK   76  A    between atoms: _186  and  _188
REMARK   77  A    between atoms: _188  and  _189
REMARK   78  A    between atoms: _192  and  _194
REMARK   79  A    between atoms: _194  and  _195
REMARK   80  A    between atoms: _194  and  _197
REMARK   81  A    between atoms: _197  and  _198
REMARK   82  A    between atoms: _201  and  _203
REMARK   83  A    between atoms: _203  and  _204
REMARK   84  A    between atoms: _203  and  _206
REMARK   85  A    between atoms: _209  and  _211
REMARK   86  A    between atoms: _211  and  _212
REMARK   87  A    between atoms: _211  and  _214
REMARK   88  A    between atoms: _214  and  _215
REMARK   89  A    between atoms: _225  and  _227
REMARK   90  A    between atoms: _227  and  _228
REMARK   91  A    between atoms: _230  and  _232
REMARK   92  A    between atoms: _232  and  _233
REMARK   93  A    between atoms: _232  and  _235
REMARK   94  A    between atoms: _235  and  _236
REMARK   95  A    between atoms: _241  and  _242
REMARK   96  A    between atoms: _244  and  _246
REMARK   97  A    between atoms: _246  and  _247
REMARK   98  A    between atoms: _246  and  _249
REMARK   99  A    between atoms: _249  and  _250
REMARK  100  A    between atoms: _250  and  _251
REMARK  101  A    between atoms: _251  and  _252
REMARK  102  A    between atoms: _252  and  _253
REMARK  103  A    between atoms: _257  and  _259
REMARK  104  A    between atoms: _259  and  _260
REMARK  105  A    between atoms: _259  and  _262
REMARK  106  A    between atoms: _262  and  _263
REMARK  107  A    between atoms: _266  and  _268
REMARK  108  A    between atoms: _268  and  _269
REMARK  109  A    between atoms: _268  and  _271
REMARK  110  A    between atoms: _271  and  _272
REMARK  111  A    between atoms: _275  and  _277
REMARK  112  A    between atoms: _277  and  _278
REMARK  113  A    between atoms: _277  and  _280
REMARK  114  A    between atoms: _280  and  _281
REMARK  115  A    between atoms: _281  and  _282
REMARK  116  A    between atoms: _282  and  _283
REMARK  117  A    between atoms: _283  and  _284
REMARK  118  A    between atoms: _288  and  _290
REMARK  119  A    between atoms: _290  and  _291
REMARK  120  A    between atoms: _290  and  _293
REMARK  121  A    between atoms: _293  and  _294
REMARK  122  A    between atoms: _297  and  _299
REMARK  123  A    between atoms: _299  and  _300
REMARK  124  A    between atoms: _299  and  _302
REMARK  125  A    between atoms: _302  and  _303
REMARK  126  A    between atoms: _308  and  _309
REMARK  127  A    between atoms: _311  and  _313
REMARK  128  A    between atoms: _313  and  _314
REMARK  129  A    between atoms: _313  and  _316
REMARK  130  A    between atoms: _316  and  _317
REMARK  131  A    between atoms: _320  and  _322
REMARK  132  A    between atoms: _322  and  _323
REMARK  133  A    between atoms: _322  and  _325
REMARK  134  A    between atoms: _327  and  _329
REMARK  135  A    between atoms: _329  and  _330
REMARK  136  A    between atoms: _333  and  _335
REMARK  137  A    between atoms: _335  and  _336
REMARK  138  A    between atoms: _335  and  _338
REMARK  139  A    between atoms: _338  and  _339
REMARK  140  A    between atoms: _339  and  _340
REMARK  141  A    between atoms: _340  and  _341
REMARK  142  A    between atoms: _341  and  _342
REMARK  143  A    between atoms: _346  and  _348
REMARK  144  A    between atoms: _348  and  _349
REMARK  145  A    between atoms: _348  and  _351
REMARK  146  A    between atoms: _351  and  _352
REMARK  147  A    between atoms: _355  and  _357
REMARK  148  A    between atoms: _357  and  _358
REMARK  149  A    between atoms: _361  and  _363
REMARK  150  A    between atoms: _363  and  _364
REMARK  151  A    between atoms: _363  and  _366
REMARK  152  A    between atoms: _366  and  _367
REMARK  153  A    between atoms: _367  and  _490
REMARK  154  A    between atoms: _368  and  _370
REMARK  155  A    between atoms: _370  and  _371
REMARK  156  A    between atoms: _370  and  _373
REMARK  157  A    between atoms: _373  and  _374
REMARK  158  A    between atoms: _374  and  _375
REMARK  159  A    between atoms: _375  and  _376
REMARK  160  A    between atoms: _376  and  _377
REMARK  161  A    between atoms: _381  and  _383
REMARK  162  A    between atoms: _383  and  _384
REMARK  163  A    between atoms: _386  and  _388
REMARK  164  A    between atoms: _388  and  _389
REMARK  165  A    between atoms: _388  and  _391
REMARK  166  A    between atoms: _391  and  _392
REMARK  167  A    between atoms: _395  and  _397
REMARK  168  A    between atoms: _397  and  _398
REMARK  169  A    between atoms: _397  and  _400
REMARK  170  A    between atoms: _400  and  _401
REMARK  171  A    between atoms: _403  and  _405
REMARK  172  A    between atoms: _405  and  _406
REMARK  173  A    between atoms: _408  and  _410
REMARK  174  A    between atoms: _410  and  _411
REMARK  175  A    between atoms: _413  and  _415
REMARK  176  A    between atoms: _415  and  _416
REMARK  177  A    between atoms: _415  and  _418
REMARK  178  A    between atoms: _418  and  _419
REMARK  179  A    between atoms: _422  and  _424
REMARK  180  A    between atoms: _424  and  _425
REMARK  181  A    between atoms: _424  and  _427
REMARK  182  A    between atoms: _427  and  _428
REMARK  183  A    between atoms: _431  and  _433
REMARK  184  A    between atoms: _433  and  _434
REMARK  185  A    between atoms: _433  and  _436
REMARK  186  A    between atoms: _436  and  _437
REMARK  187  A    between atoms: _440  and  _442
REMARK  188  A    between atoms: _442  and  _443
REMARK  189  A    between atoms: _442  and  _445
REMARK  190  A    between atoms: _445  and  _446
REMARK  191  A    between atoms: _448  and  _450
REMARK  192  A    between atoms: _450  and  _451
REMARK  193  A    between atoms: _450  and  _453
REMARK  194  A    between atoms: _453  and  _454
REMARK  195  A    between atoms: _464  and  _466
REMARK  196  A    between atoms: _466  and  _467
REMARK  197  A    between atoms: _469  and  _471
REMARK  198  A    between atoms: _471  and  _472
REMARK  199  A    between atoms: _471  and  _474
REMARK  200  A    between atoms: _474  and  _475
REMARK  201  A    between atoms: _475  and  _476
REMARK  202  A    between atoms: _479  and  _481
REMARK  203  A    between atoms: _481  and  _482
REMARK  204  A    between atoms: _484  and  _486
REMARK  205  A    between atoms: _486  and  _487
REMARK  206  A    between atoms: _486  and  _489
REMARK  207  A    between atoms: _489  and  _490
REMARK  208  A    between atoms: _491  and  _493
REMARK  209  A    between atoms: _493  and  _494
REMARK  210  A    between atoms: _497  and  _499
REMARK  211  A    between atoms: _499  and  _500
REMARK  212  A    between atoms: _499  and  _502
REMARK  213  A    between atoms: _502  and  _503
REMARK  214  A    between atoms: _503  and  _504
REMARK  215  A    between atoms: _509  and  _511
REMARK  216  A    between atoms: _511  and  _512
REMARK  217  A    between atoms: _511  and  _514
REMARK  218  A    between atoms: _514  and  _515
REMARK  219  A    between atoms: _515  and  _516
REMARK  220  A    between atoms: _516  and  _517
REMARK  221  A    between atoms: _527  and  _528
REMARK  222  A    between atoms: _533  and  _535
REMARK  223  A    between atoms: _535  and  _536
REMARK  224  A    between atoms: _538  and  _540
REMARK  225  A    between atoms: _540  and  _541
REMARK  226  A    between atoms: _540  and  _543
REMARK  227  A    between atoms: _546  and  _548
REMARK  228  A    between atoms: _548  and  _549
REMARK  229  A    between atoms: _548  and  _551
REMARK  230  A    between atoms: _551  and  _552
REMARK  231  A    between atoms: _557  and  _558
REMARK  232  A    between atoms: _560  and  _562
REMARK  233  A    between atoms: _562  and  _563
REMARK  234  A    between atoms: _562  and  _565
REMARK  235  A    between atoms: _565  and  _566
REMARK                            x       y       z     vdW  Elec       q    Type
REMARK                         _______ _______ _______ _____ _____    ______ ____
ROOT
ATOM      1  CA  LYS A   1      45.857  -9.355  28.071  0.00  0.00    +0.145 C 
ENDROOT
BRANCH   1   2
ATOM      2  C   LYS A   1      45.898 -10.669  27.326  0.00  0.00    +0.238 C 
ATOM      3  O   LYS A   1      46.334 -11.655  27.900  0.00  0.00    -0.274 OA
ATOM      4  N   LEU A   2      45.432 -10.708  26.069  0.00  0.00    -0.298 N 
ATOM      5  H   LEU A   2      45.101  -9.830  25.620  0.00  0.00    +0.150 HD
BRANCH   4   6
ATOM      6  CA  LEU A   2      45.380 -11.960  25.318  0.00  0.00    +0.137 C 
BRANCH   6   7
ATOM      7  C   LEU A   2      46.713 -12.717  25.285  0.00  0.00    +0.227 C 
ATOM      8  O   LEU A   2      46.699 -13.932  25.479  0.00  0.00    -0.286 OA
ENDBRANCH   6   7
BRANCH   6   9
ATOM      9  CB  LEU A   2      44.793 -11.791  23.908  0.00  0.00    +0.028 C 
BRANCH   9  10
ATOM     10  CG  LEU A   2      44.230 -13.059  23.226  0.00  0.00    +0.002 C 
ATOM     11  CD2 LEU A   2      43.392 -13.934  24.173  0.00  0.00    +0.000 C 
ATOM     12  CD1 LEU A   2      43.426 -12.702  22.016  0.00  0.00    +0.000 C 
ENDBRANCH   9  10
ENDBRANCH   6   9
ENDBRANCH   4   6
ENDBRANCH   1   2
BRANCH   1  13
ATOM     13  N   LYS A   1      45.982  -9.631  29.516  0.00  0.00    -0.238 NA
ATOM     14  H   LYS A   1      46.474 -10.505  29.789  0.00  0.00    +0.142 HD
ENDBRANCH   1  13
BRANCH   1  15
ATOM     15  CB  LYS A   1      46.912  -8.347  27.547  0.00  0.00    +0.026 C 
BRANCH  15  16
ATOM     16  CG  LYS A   1      48.348  -8.646  27.940  0.00  0.00    -0.000 C 
BRANCH  16  17
ATOM     17  CD  LYS A   1      49.289  -7.610  27.375  0.00  0.00    -0.024 C 
BRANCH  17  18
ATOM     18  CE  LYS A   1      50.564  -8.201  26.822  0.00  0.00    -0.086 C 
BRANCH  18  19
ATOM     19  NZ  LYS A   1      51.358  -8.925  27.857  0.00  0.00    +0.380 N 
ATOM     20  HZ1 LYS A   1      51.616  -8.265  28.619  0.00  0.00    -0.089 HD
ATOM     21  HZ2 LYS A   1      50.789  -9.703  28.248  0.00  0.00    -0.089 HD
ATOM     22  HZ3 LYS A   1      52.221  -9.310  27.423  0.00  0.00    -0.089 HD
ENDBRANCH  18  19
ENDBRANCH  17  18
ENDBRANCH  16  17
ENDBRANCH  15  16
ENDBRANCH   1  15
TORSDOF 11
REMARK  Name = ../refined-set-2016/5e2p/5e2p_pocket.pdb
REMARK  235 active torsions:
REMARK  status: ('A' for Active; 'I' for Inactive)
REMARK    1  A    between atoms: _1  and  _5
REMARK    2  A    between atoms: _5  and  _6
REMARK    3  A    between atoms: _5  and  _8
REMARK    4  A    between atoms: _8  and  _9
REMARK    5  A    between atoms: _12  and  _14
REMARK    6  A    between atoms: _14  and  _15
REMARK    7  A    between atoms: _14  and  _17
REMARK    8  A    between atoms: _20  and  _22
REMARK    9  A    between atoms: _22  and  _23
REMARK   10  A    between atoms: _22  and  _25
REMARK   11  A    between atoms: _25  and  _26
REMARK   12  A    between atoms: _29  and  _31
REMARK   13  A    between atoms: _31  and  _32
REMARK   14  A    between atoms: _31  and  _34
REMARK   15  A    between atoms: _34  and  _35
REMARK   16  A    between atoms: _38  and  _40
REMARK   17  A    between atoms: _40  and  _41
REMARK   18  A    between atoms: _40  and  _43
REMARK   19  A    between atoms: _43  and  _44
REMARK   20  A    between atoms: _47  and  _49
REMARK   21  A    between atoms: _49  and  _50
REMARK   22  A    between atoms: _49  and  _52
REMARK   23  A    between atoms: _52  and  _53
REMARK   24  A    between atoms: _56  and  _58
REMARK   25  A    between atoms: _58  and  _59
REMARK   26  A    between atoms: _58  and  _61
REMARK   27  A    between atoms: _61  and  _62
REMARK   28  A    between atoms: _62  and  _63
REMARK   29  A    between atoms: _68  and  _70
REMARK   30  A    between atoms: _70  and  _71
REMARK   31  A    between atoms: _70  and  _73
REMARK   32  A    between atoms: _73  and  _74
REMARK   33  A    between atoms: _74  and  _75
REMARK   34  A    between atoms: _75  and  _76
REMARK   35  A    between atoms: _85  and  _87
REMARK   36  A    between atoms: _87  and  _88
REMARK   37  A    between atoms: _87  and  _90
REMARK   38  A    between atoms: _90  and  _91
REMARK   39  A    between atoms: _96  and  _98
REMARK   40  A    between atoms: _98  and  _99
REMARK   41  A    between atoms: _98  and  _101
REMARK   42  A    between atoms: _101  and  _102
REMARK   43  A    between atoms: _105  and  _107
REMARK   44  A    between atoms: _107  and  _108
REMARK   45  A    between atoms: _107  and  _110
REMARK   46  A    between atoms: _110  and  _111
REMARK   47  A    between atoms: _111  and  _146
REMARK   48  A    between atoms: _112  and  _114
REMARK   49  A    between atoms: _114  and  _115
REMARK   50  A    between atoms: _117  and  _119
REMARK   51  A    between atoms: _119  and  _120
REMARK   52  A    between atoms: _123  and  _125
REMARK   53  A    between atoms: _125  and  _126
REMARK   54  A    between atoms: _129  and  _131
REMARK   55  A    between atoms: _131  and  _132
REMARK   56  A    between atoms: _131  and  _134
REMARK   57  A    between atoms: _134  and  _135
REMARK   58  A    between atoms: _140  and  _142
REMARK   59  A    between atoms: _142  and  _143
REMARK   60  A    between atoms: _142  and  _145
REMARK   61  A    between atoms: _145  and  _146
REMARK   62  A    between atoms: _147  and  _149
REMARK   63  A    between atoms: _149  and  _150
REMARK   64  A    between atoms: _149  and  _152
REMARK   65  A    between atoms: _152  and  _153
REMARK   66  A    between atoms: _159  and  _161
REMARK   67  A    between atoms: _161  and  _162
REMARK   68  A    between atoms: _161  and  _164
REMARK   69  A    between atoms: _164  and  _165
REMARK   70  A    between atoms: _170  and  _171
REMARK   71  A    between atoms: _173  and  _175
REMARK   72  A    between atoms: _175  and  _176
REMARK   73  A    between atoms: _178  and  _180
REMARK   74  A    between atoms: _180  and  _181
REMARK   75  A    between atoms: _180  and  _183
REMARK   76  A    between atoms: _186  and  _188
REMARK   77  A    between atoms: _188  and  _189
REMARK   78  A    between atoms: _192  and  _194
REMARK   79  A    between atoms: _194  and  _195
REMARK   80  A    between atoms: _194  and  _197
REMARK   81  A    between atoms: _197  and  _198
REMARK   82  A    between atoms: _201  and  _203
REMARK   83  A    between atoms: _203  and  _204
REMARK   84  A    between atoms: _203  and  _206
REMARK   85  A    between atoms: _209  and  _211
REMARK   86  A    between atoms: _211  and  _212
REMARK   87  A    between atoms: _211  and  _214
REMARK   88  A    between atoms: _214  and  _215
REMARK   89  A    between atoms: _225  and  _227
REMARK   90  A    between atoms: _227  and  _228
REMARK   91  A    between atoms: _230  and  _232
REMARK   92  A    between atoms: _232  and  _233
REMARK   93  A    between atoms: _232  and  _235
REMARK   94  A    between atoms: _235  and  _236
REMARK   95  A    between atoms: _241  and  _242
REMARK   96  A    between atoms: _244  and  _246
REMARK   97  A    between atoms: _246  and  _247
REMARK   98  A    between atoms: _246  and  _249
REMARK   99  A    between atoms: _249  and  _250
REMARK  100  A    between atoms: _250  and  _251
REMARK  101  A    between atoms: _251  and  _252
REMARK  102  A    between atoms: _252  and  _253
REMARK  103  A    between atoms: _257  and  _259
REMARK  104  A    between atoms: _259  and  _260
REMARK  105  A    between atoms: _259  and  _262
REMARK  106  A    between atoms: _262  and  _263
REMARK  107  A    between atoms: _266  and  _268
REMARK  108  A    between atoms: _268  and  _269
REMARK  109  A    between atoms: _268  and  _271
REMARK  110  A    between atoms: _271  and  _272
REMARK  111  A    between atoms: _275  and  _277
REMARK  112  A    between atoms: _277  and  _278
REMARK  113  A    between atoms: _277  and  _280
REMARK  114  A    between atoms: _280  and  _281
REMARK  115  A    between atoms: _281  and  _282
REMARK  116  A    between atoms: _282  and  _283
REMARK  117  A    between atoms: _283  and  _284
REMARK  118  A    between atoms: _288  and  _290
REMARK  119  A    between atoms: _290  and  _291
REMARK  120  A    between atoms: _290  and  _293
REMARK  121  A    between atoms: _293  and  _294
REMARK  122  A    between atoms: _297  and  _299
REMARK  123  A    between atoms: _299  and  _300
REMARK  124  A    between atoms: _299  and  _302
REMARK  125  A    between atoms: _302  and  _303
REMARK  126  A    between atoms: _308  and  _309
REMARK  127  A    between atoms: _311  and  _313
REMARK  128  A    between atoms: _313  and  _314
REMARK  129  A    between atoms: _313  and  _316
REMARK  130  A    between atoms: _316  and  _317
REMARK  131  A    between atoms: _320  and  _322
REMARK  132  A    between atoms: _322  and  _323
REMARK  133  A    between atoms: _322  and  _325
REMARK  134  A    between atoms: _327  and  _329
REMARK  135  A    between atoms: _329  and  _330
REMARK  136  A    between atoms: _333  and  _335
REMARK  137  A    between atoms: _335  and  _336
REMARK  138  A    between atoms: _335  and  _338
REMARK  139  A    between atoms: _338  and  _339
REMARK  140  A    between atoms: _339  and  _340
REMARK  141  A    between atoms: _340  and  _341
REMARK  142  A    between atoms: _341  and  _342
REMARK  143  A    between atoms: _346  and  _348
REMARK  144  A    between atoms: _348  and  _349
REMARK  145  A    between atoms: _348  and  _351
REMARK  146  A    between atoms: _351  and  _352
REMARK  147  A    between atoms: _355  and  _357
REMARK  148  A    between atoms: _357  and  _358
REMARK  149  A    between atoms: _361  and  _363
REMARK  150  A    between atoms: _363  and  _364
REMARK  151  A    between atoms: _363  and  _366
REMARK  152  A    between atoms: _366  and  _367
REMARK  153  A    between atoms: _367  and  _490
REMARK  154  A    between atoms: _368  and  _370
REMARK  155  A    between atoms: _370  and  _371
REMARK  156  A    between atoms: _370  and  _373
REMARK  157  A    between atoms: _373  and  _374
REMARK  158  A    between atoms: _374  and  _375
REMARK  159  A    between atoms: _375  and  _376
REMARK  160  A    between atoms: _376  and  _377
REMARK  161  A    between atoms: _381  and  _383
REMARK  162  A    between atoms: _383  and  _384
REMARK  163  A    between atoms: _386  and  _388
REMARK  164  A    between atoms: _388  and  _389
REMARK  165  A    between atoms: _388  and  _391
REMARK  166  A    between atoms: _391  and  _392
REMARK  167  A    between atoms: _395  and  _397
REMARK  168  A    between atoms: _397  and  _398
REMARK  169  A    between atoms: _397  and  _400
REMARK  170  A    between atoms: _400  and  _401
REMARK  171  A    between atoms: _403  and  _405
REMARK  172  A    between atoms: _405  and  _406
REMARK  173  A    between atoms: _408  and  _410
REMARK  174  A    between atoms: _410  and  _411
REMARK  175  A    between atoms: _413  and  _415
REMARK  176  A    between atoms: _415  and  _416
REMARK  177  A    between atoms: _415  and  _418
REMARK  178  A    between atoms: _418  and  _419
REMARK  179  A    between atoms: _422  and  _424
REMARK  180  A    between atoms: _424  and  _425
REMARK  181  A    between atoms: _424  and  _427
REMARK  182  A    between atoms: _427  and  _428
REMARK  183  A    between atoms: _431  and  _433
REMARK  184  A    between atoms: _433  and  _434
REMARK  185  A    between atoms: _433  and  _436
REMARK  186  A    between atoms: _436  and  _437
REMARK  187  A    between atoms: _440  and  _442
REMARK  188  A    between atoms: _442  and  _443
REMARK  189  A    between atoms: _442  and  _445
REMARK  190  A    between atoms: _445  and  _446
REMARK  191  A    between atoms: _448  and  _450
REMARK  192  A    between atoms: _450  and  _451
REMARK  193  A    between atoms: _450  and  _453
REMARK  194  A    between atoms: _453  and  _454
REMARK  195  A    between atoms: _464  and  _466
REMARK  196  A    between atoms: _466  and  _467
REMARK  197  A    between atoms: _469  and  _471
REMARK  198  A    between atoms: _471  and  _472
REMARK  199  A    between atoms: _471  and  _474
REMARK  200  A    between atoms: _474  and  _475
REMARK  201  A    between atoms: _475  and  _476
REMARK  202  A    between atoms: _479  and  _481
REMARK  203  A    between atoms: _481  and  _482
REMARK  204  A    between atoms: _484  and  _486
REMARK  205  A    between atoms: _486  and  _487
REMARK  206  A    between atoms: _486  and  _489
REMARK  207  A    between atoms: _489  and  _490
REMARK  208  A    between atoms: _491  and  _493
REMARK  209  A    between atoms: _493  and  _494
REMARK  210  A    between atoms: _497  and  _499
REMARK  211  A    between atoms: _499  and  _500
REMARK  212  A    between atoms: _499  and  _502
REMARK  213  A    between atoms: _502  and  _503
REMARK  214  A    between atoms: _503  and  _504
REMARK  215  A    between atoms: _509  and  _511
REMARK  216  A    between atoms: _511  and  _512
REMARK  217  A    between atoms: _511  and  _514
REMARK  218  A    between atoms: _514  and  _515
REMARK  219  A    between atoms: _515  and  _516
REMARK  220  A    between atoms: _516  and  _517
REMARK  221  A    between atoms: _527  and  _528
REMARK  222  A    between atoms: _533  and  _535
REMARK  223  A    between atoms: _535  and  _536
REMARK  224  A    between atoms: _538  and  _540
REMARK  225  A    between atoms: _540  and  _541
REMARK  226  A    between atoms: _540  and  _543
REMARK  227  A    between atoms: _546  and  _548
REMARK  228  A    between atoms: _548  and  _549
REMARK  229  A    between atoms: _548  and  _551
REMARK  230  A    between atoms: _551  and  _552
REMARK  231  A    between atoms: _557  and  _558
REMARK  232  A    between atoms: _560  and  _562
REMARK  233  A    between atoms: _562  and  _563
REMARK  234  A    between atoms: _562  and  _565
REMARK  235  A    between atoms: _565  and  _566
REMARK                            x       y       z     vdW  Elec       q    Type
REMARK                         _______ _______ _______ _____ _____    ______ ____
ROOT
ATOM      1  CA  LYS A   2      50.390 -15.300  31.829  0.00  0.00    +0.149 C 
ENDROOT
BRANCH   1   3
ATOM      2  C   ASP A   1      50.376 -14.175  29.627  0.00  0.00    +0.239 C 
ATOM      3  N   LYS A   2      50.156 -14.171  30.947  0.00  0.00    -0.297 N 
ATOM      4  H   LYS A   2      49.791 -13.295  31.372  0.00  0.00    +0.150 HD
ATOM      5  O   ASP A   1      50.784 -15.170  29.016  0.00  0.00    -0.274 OA
BRANCH   2   6
ATOM      6  CA  ASP A   1      50.087 -12.866  28.880  0.00  0.00    +0.156 C 
BRANCH   6   7
ATOM      7  N   ASP A   1      49.555 -13.162  27.546  0.00  0.00    -0.238 NA
ATOM      8  H   ASP A   1      48.956 -14.003  27.419  0.00  0.00    +0.142 HD
ENDBRANCH   6   7
BRANCH   6   9
ATOM      9  CB  ASP A   1      49.082 -11.960  29.638  0.00  0.00    +0.140 C 
BRANCH   9  10
ATOM     10  CG  ASP A   1      49.569 -11.240  30.890  0.00  0.00    +0.367 C 
ATOM     11  OD2 ASP A   1      48.846 -11.262  31.905  0.00  0.00    -0.246 OA
ATOM     12  OD1 ASP A   1      50.629 -10.590  30.829  0.00  0.00    -0.246 OA
ENDBRANCH   9  10
ENDBRANCH   6   9
ENDBRANCH   2   6
ENDBRANCH   1   3
BRANCH   1  13
ATOM     13  C   LYS A   2      49.398 -15.271  32.995  0.00  0.00    +0.241 C 
ATOM     14  N   ILE A   3      49.277 -16.416  33.683  0.00  0.00    -0.298 N 
ATOM     15  H   ILE A   3      49.805 -17.233  33.317  0.00  0.00    +0.150 HD
ATOM     16  O   LYS A   2      48.771 -14.244  33.264  0.00  0.00    -0.273 OA
BRANCH  14  17
ATOM     17  CA  ILE A   3      48.484 -16.643  34.892  0.00  0.00    +0.137 C 
BRANCH  17  18
ATOM     18  C   ILE A   3      49.060 -15.735  35.976  0.00  0.00    +0.227 C 
ATOM     19  O   ILE A   3      50.279 -15.611  36.107  0.00  0.00    -0.286 OA
ENDBRANCH  17  18
BRANCH  17  20
ATOM     20  CB  ILE A   3      48.506 -18.164  35.252  0.00  0.00    +0.026 C 
ATOM     21  CG2 ILE A   3      47.950 -18.475  36.670  0.00  0.00    +0.002 C 
BRANCH  20  22
ATOM     22  CG1 ILE A   3      47.767 -18.990  34.165  0.00  0.00    +0.002 C 
ATOM     23  CD1 ILE A   3      46.318 -18.551  33.807  0.00  0.00    +0.000 C 
ENDBRANCH  20  22
ENDBRANCH  17  20
ENDBRANCH  14  17
ENDBRANCH   1  13
BRANCH   1  24
ATOM     24  CB  LYS A   2      51.853 -15.258  32.359  0.00  0.00    +0.029 C 
BRANCH  24  25
ATOM     25  CG  LYS A   2      52.248 -13.957  33.055  0.00  0.00    +0.000 C 
BRANCH  25  26
ATOM     26  CD  LYS A   2      53.544 -14.077  33.852  0.00  0.00    -0.024 C 
BRANCH  26  27
ATOM     27  CE  LYS A   2      54.814 -14.066  33.015  0.00  0.00    -0.086 C 
BRANCH  27  28
ATOM     28  NZ  LYS A   2      55.031 -12.771  32.309  0.00  0.00    +0.380 N 
ATOM     29  HZ1 LYS A   2      55.104 -12.005  33.008  0.00  0.00    -0.089 HD
ATOM     30  HZ2 LYS A   2      55.910 -12.822  31.755  0.00  0.00    -0.089 HD
ATOM     31  HZ3 LYS A   2      54.229 -12.586  31.673  0.00  0.00    -0.089 HD
ENDBRANCH  27  28
ENDBRANCH  26  27
ENDBRANCH  25  26
ENDBRANCH  24  25
ENDBRANCH   1  24
TORSDOF 15
REMARK  Name = ../refined-set-2016/5e2p/5e2p_pocket.pdb
REMARK  235 active torsions:
REMARK  status: ('A' for Active; 'I' for Inactive)
REMARK    1  A    between atoms: _1  and  _5
REMARK    2  A    between atoms: _5  and  _6
REMARK    3  A    between atoms: _5  and  _8
REMARK    4  A    between atoms: _8  and  _9
REMARK    5  A    between atoms: _12  and  _14
REMARK    6  A    between atoms: _14  and  _15
REMARK    7  A    between atoms: _14  and  _17
REMARK    8  A    between atoms: _20  and  _22
REMARK    9  A    between atoms: _22  and  _23
REMARK   10  A    between atoms: _22  and  _25
REMARK   11  A    between atoms: _25  and  _26
REMARK   12  A    between atoms: _29  and  _31
REMARK   13  A    between atoms: _31  and  _32
REMARK   14  A    between atoms: _31  and  _34
REMARK   15  A    between atoms: _34  and  _35
REMARK   16  A    between atoms: _38  and  _40
REMARK   17  A    between atoms: _40  and  _41
REMARK   18  A    between atoms: _40  and  _43
REMARK   19  A    between atoms: _43  and  _44
REMARK   20  A    between atoms: _47  and  _49
REMARK   21  A    between atoms: _49  and  _50
REMARK   22  A    between atoms: _49  and  _52
REMARK   23  A    between atoms: _52  and  _53
REMARK   24  A    between atoms: _56  and  _58
REMARK   25  A    between atoms: _58  and  _59
REMARK   26  A    between atoms: _58  and  _61
REMARK   27  A    between atoms: _61  and  _62
REMARK   28  A    between atoms: _62  and  _63
REMARK   29  A    between atoms: _68  and  _70
REMARK   30  A    between atoms: _70  and  _71
REMARK   31  A    between atoms: _70  and  _73
REMARK   32  A    between atoms: _73  and  _74
REMARK   33  A    between atoms: _74  and  _75
REMARK   34  A    between atoms: _75  and  _76
REMARK   35  A    between atoms: _85  and  _87
REMARK   36  A    between atoms: _87  and  _88
REMARK   37  A    between atoms: _87  and  _90
REMARK   38  A    between atoms: _90  and  _91
REMARK   39  A    between atoms: _96  and  _98
REMARK   40  A    between atoms: _98  and  _99
REMARK   41  A    between atoms: _98  and  _101
REMARK   42  A    between atoms: _101  and  _102
REMARK   43  A    between atoms: _105  and  _107
REMARK   44  A    between atoms: _107  and  _108
REMARK   45  A    between atoms: _107  and  _110
REMARK   46  A    between atoms: _110  and  _111
REMARK   47  A    between atoms: _111  and  _146
REMARK   48  A    between atoms: _112  and  _114
REMARK   49  A    between atoms: _114  and  _115
REMARK   50  A    between atoms: _117  and  _119
REMARK   51  A    between atoms: _119  and  _120
REMARK   52  A    between atoms: _123  and  _125
REMARK   53  A    between atoms: _125  and  _126
REMARK   54  A    between atoms: _129  and  _131
REMARK   55  A    between atoms: _131  and  _132
REMARK   56  A    between atoms: _131  and  _134
REMARK   57  A    between atoms: _134  and  _135
REMARK   58  A    between atoms: _140  and  _142
REMARK   59  A    between atoms: _142  and  _143
REMARK   60  A    between atoms: _142  and  _145
REMARK   61  A    between atoms: _145  and  _146
REMARK   62  A    between atoms: _147  and  _149
REMARK   63  A    between atoms: _149  and  _150
REMARK   64  A    between atoms: _149  and  _152
REMARK   65  A    between atoms: _152  and  _153
REMARK   66  A    between atoms: _159  and  _161
REMARK   67  A    between atoms: _161  and  _162
REMARK   68  A    between atoms: _161  and  _164
REMARK   69  A    between atoms: _164  and  _165
REMARK   70  A    between atoms: _170  and  _171
REMARK   71  A    between atoms: _173  and  _175
REMARK   72  A    between atoms: _175  and  _176
REMARK   73  A    between atoms: _178  and  _180
REMARK   74  A    between atoms: _180  and  _181
REMARK   75  A    between atoms: _180  and  _183
REMARK   76  A    between atoms: _186  and  _188
REMARK   77  A    between atoms: _188  and  _189
REMARK   78  A    between atoms: _192  and  _194
REMARK   79  A    between atoms: _194  and  _195
REMARK   80  A    between atoms: _194  and  _197
REMARK   81  A    between atoms: _197  and  _198
REMARK   82  A    between atoms: _201  and  _203
REMARK   83  A    between atoms: _203  and  _204
REMARK   84  A    between atoms: _203  and  _206
REMARK   85  A    between atoms: _209  and  _211
REMARK   86  A    between atoms: _211  and  _212
REMARK   87  A    between atoms: _211  and  _214
REMARK   88  A    between atoms: _214  and  _215
REMARK   89  A    between atoms: _225  and  _227
REMARK   90  A    between atoms: _227  and  _228
REMARK   91  A    between atoms: _230  and  _232
REMARK   92  A    between atoms: _232  and  _233
REMARK   93  A    between atoms: _232  and  _235
REMARK   94  A    between atoms: _235  and  _236
REMARK   95  A    between atoms: _241  and  _242
REMARK   96  A    between atoms: _244  and  _246
REMARK   97  A    between atoms: _246  and  _247
REMARK   98  A    between atoms: _246  and  _249
REMARK   99  A    between atoms: _249  and  _250
REMARK  100  A    between atoms: _250  and  _251
REMARK  101  A    between atoms: _251  and  _252
REMARK  102  A    between atoms: _252  and  _253
REMARK  103  A    between atoms: _257  and  _259
REMARK  104  A    between atoms: _259  and  _260
REMARK  105  A    between atoms: _259  and  _262
REMARK  106  A    between atoms: _262  and  _263
REMARK  107  A    between atoms: _266  and  _268
REMARK  108  A    between atoms: _268  and  _269
REMARK  109  A    between atoms: _268  and  _271
REMARK  110  A    between atoms: _271  and  _272
REMARK  111  A    between atoms: _275  and  _277
REMARK  112  A    between atoms: _277  and  _278
REMARK  113  A    between atoms: _277  and  _280
REMARK  114  A    between atoms: _280  and  _281
REMARK  115  A    between atoms: _281  and  _282
REMARK  116  A    between atoms: _282  and  _283
REMARK  117  A    between atoms: _283  and  _284
REMARK  118  A    between atoms: _288  and  _290
REMARK  119  A    between atoms: _290  and  _291
REMARK  120  A    between atoms: _290  and  _293
REMARK  121  A    between atoms: _293  and  _294
REMARK  122  A    between atoms: _297  and  _299
REMARK  123  A    between atoms: _299  and  _300
REMARK  124  A    between atoms: _299  and  _302
REMARK  125  A    between atoms: _302  and  _303
REMARK  126  A    between atoms: _308  and  _309
REMARK  127  A    between atoms: _311  and  _313
REMARK  128  A    between atoms: _313  and  _314
REMARK  129  A    between atoms: _313  and  _316
REMARK  130  A    between atoms: _316  and  _317
REMARK  131  A    between atoms: _320  and  _322
REMARK  132  A    between atoms: _322  and  _323
REMARK  133  A    between atoms: _322  and  _325
REMARK  134  A    between atoms: _327  and  _329
REMARK  135  A    between atoms: _329  and  _330
REMARK  136  A    between atoms: _333  and  _335
REMARK  137  A    between atoms: _335  and  _336
REMARK  138  A    between atoms: _335  and  _338
REMARK  139  A    between atoms: _338  and  _339
REMARK  140  A    between atoms: _339  and  _340
REMARK  141  A    between atoms: _340  and  _341
REMARK  142  A    between atoms: _341  and  _342
REMARK  143  A    between atoms: _346  and  _348
REMARK  144  A    between atoms: _348  and  _349
REMARK  145  A    between atoms: _348  and  _351
REMARK  146  A    between atoms: _351  and  _352
REMARK  147  A    between atoms: _355  and  _357
REMARK  148  A    between atoms: _357  and  _358
REMARK  149  A    between atoms: _361  and  _363
REMARK  150  A    between atoms: _363  and  _364
REMARK  151  A    between atoms: _363  and  _366
REMARK  152  A    between atoms: _366  and  _367
REMARK  153  A    between atoms: _367  and  _490
REMARK  154  A    between atoms: _368  and  _370
REMARK  155  A    between atoms: _370  and  _371
REMARK  156  A    between atoms: _370  and  _373
REMARK  157  A    between atoms: _373  and  _374
REMARK  158  A    between atoms: _374  and  _375
REMARK  159  A    between atoms: _375  and  _376
REMARK  160  A    between atoms: _376  and  _377
REMARK  161  A    between atoms: _381  and  _383
REMARK  162  A    between atoms: _383  and  _384
REMARK  163  A    between atoms: _386  and  _388
REMARK  164  A    between atoms: _388  and  _389
REMARK  165  A    between atoms: _388  and  _391
REMARK  166  A    between atoms: _391  and  _392
REMARK  167  A    between atoms: _395  and  _397
REMARK  168  A    between atoms: _397  and  _398
REMARK  169  A    between atoms: _397  and  _400
REMARK  170  A    between atoms: _400  and  _401
REMARK  171  A    between atoms: _403  and  _405
REMARK  172  A    between atoms: _405  and  _406
REMARK  173  A    between atoms: _408  and  _410
REMARK  174  A    between atoms: _410  and  _411
REMARK  175  A    between atoms: _413  and  _415
REMARK  176  A    between atoms: _415  and  _416
REMARK  177  A    between atoms: _415  and  _418
REMARK  178  A    between atoms: _418  and  _419
REMARK  179  A    between atoms: _422  and  _424
REMARK  180  A    between atoms: _424  and  _425
REMARK  181  A    between atoms: _424  and  _427
REMARK  182  A    between atoms: _427  and  _428
REMARK  183  A    between atoms: _431  and  _433
REMARK  184  A    between atoms: _433  and  _434
REMARK  185  A    between atoms: _433  and  _436
REMARK  186  A    between atoms: _436  and  _437
REMARK  187  A    between atoms: _440  and  _442
REMARK  188  A    between atoms: _442  and  _443
REMARK  189  A    between atoms: _442  and  _445
REMARK  190  A    between atoms: _445  and  _446
REMARK  191  A    between atoms: _448  and  _450
REMARK  192  A    between atoms: _450  and  _451
REMARK  193  A    between atoms: _450  and  _453
REMARK  194  A    between atoms: _453  and  _454
REMARK  195  A    between atoms: _464  and  _466
REMARK  196  A    between atoms: _466  and  _467
REMARK  197  A    between atoms: _469  and  _471
REMARK  198  A    between atoms: _471  and  _472
REMARK  199  A    between atoms: _471  and  _474
REMARK  200  A    between atoms: _474  and  _475
REMARK  201  A    between atoms: _475  and  _476
REMARK  202  A    between atoms: _479  and  _481
REMARK  203  A    between atoms: _481  and  _482
REMARK  204  A    between atoms: _484  and  _486
REMARK  205  A    between atoms: _486  and  _487
REMARK  206  A    between atoms: _486  and  _489
REMARK  207  A    between atoms: _489  and  _490
REMARK  208  A    between atoms: _491  and  _493
REMARK  209  A    between atoms: _493  and  _494
REMARK  210  A    between atoms: _497  and  _499
REMARK  211  A    between atoms: _499  and  _500
REMARK  212  A    between atoms: _499  and  _502
REMARK  213  A    between atoms: _502  and  _503
REMARK  214  A    between atoms: _503  and  _504
REMARK  215  A    between atoms: _509  and  _511
REMARK  216  A    between atoms: _511  and  _512
REMARK  217  A    between atoms: _511  and  _514
REMARK  218  A    between atoms: _514  and  _515
REMARK  219  A    between atoms: _515  and  _516
REMARK  220  A    between atoms: _516  and  _517
REMARK  221  A    between atoms: _527  and  _528
REMARK  222  A    between atoms: _533  and  _535
REMARK  223  A    between atoms: _535  and  _536
REMARK  224  A    between atoms: _538  and  _540
REMARK  225  A    between atoms: _540  and  _541
REMARK  226  A    between atoms: _540  and  _543
REMARK  227  A    between atoms: _546  and  _548
REMARK  228  A    between atoms: _548  and  _549
REMARK  229  A    between atoms: _548  and  _551
REMARK  230  A    between atoms: _551  and  _552
REMARK  231  A    between atoms: _557  and  _558
REMARK  232  A    between atoms: _560  and  _562
REMARK  233  A    between atoms: _562  and  _563
REMARK  234  A    between atoms: _562  and  _565
REMARK  235  A    between atoms: _565  and  _566
REMARK                            x       y       z     vdW  Elec       q    Type
REMARK                         _______ _______ _______ _____ _____    ______ ____
ROOT
ATOM      1  CG  TYR A   1      29.039 -12.241  20.640  0.00  0.00    -0.020 A 
ATOM      2  CD2 TYR A   1      28.866 -11.604  21.868  0.00  0.00    -0.001 A 
ATOM      3  CE2 TYR A   1      29.948 -11.390  22.731  0.00  0.00    +0.036 A 
ATOM      4  CZ  TYR A   1      31.216 -11.788  22.350  0.00  0.00    +0.134 A 
ATOM      5  CE1 TYR A   1      31.412 -12.393  21.120  0.00  0.00    +0.036 A 
ATOM      6  CD1 TYR A   1      30.324 -12.641  20.288  0.00  0.00    -0.001 A 
ENDROOT
BRANCH   4   7
ATOM      7  OH  TYR A   1      32.299 -11.572  23.155  0.00  0.00    -0.506 OA
ATOM      8  HH  TYR A   1      32.164 -12.036  24.019  0.00  0.00    +0.292 HD
ENDBRANCH   4   7
BRANCH   1   9
ATOM      9  CB  TYR A   1      27.864 -12.475  19.706  0.00  0.00    +0.051 C 
BRANCH   9  10
ATOM     10  CA  TYR A   1      27.871 -11.494  18.504  0.00  0.00    +0.137 C 
BRANCH  10  11
ATOM     11  N   TYR A   1      27.422 -10.166  18.920  0.00  0.00    -0.239 NA
ATOM     12  H   TYR A   1      26.423 -10.038  19.181  0.00  0.00    +0.142 HD
ENDBRANCH  10  11
BRANCH  10  13
ATOM     13  C   TYR A   1      27.068 -11.987  17.313  0.00  0.00    +0.224 C 
ATOM     14  O   TYR A   1      26.294 -12.935  17.421  0.00  0.00    -0.287 OA
ENDBRANCH  10  13
ENDBRANCH   9  10
ENDBRANCH   1   9
TORSDOF 5
REMARK  Name = ../refined-set-2016/5e2p/5e2p_pocket.pdb
REMARK  235 active torsions:
REMARK  status: ('A' for Active; 'I' for Inactive)
REMARK    1  A    between atoms: _1  and  _5
REMARK    2  A    between atoms: _5  and  _6
REMARK    3  A    between atoms: _5  and  _8
REMARK    4  A    between atoms: _8  and  _9
REMARK    5  A    between atoms: _12  and  _14
REMARK    6  A    between atoms: _14  and  _15
REMARK    7  A    between atoms: _14  and  _17
REMARK    8  A    between atoms: _20  and  _22
REMARK    9  A    between atoms: _22  and  _23
REMARK   10  A    between atoms: _22  and  _25
REMARK   11  A    between atoms: _25  and  _26
REMARK   12  A    between atoms: _29  and  _31
REMARK   13  A    between atoms: _31  and  _32
REMARK   14  A    between atoms: _31  and  _34
REMARK   15  A    between atoms: _34  and  _35
REMARK   16  A    between atoms: _38  and  _40
REMARK   17  A    between atoms: _40  and  _41
REMARK   18  A    between atoms: _40  and  _43
REMARK   19  A    between atoms: _43  and  _44
REMARK   20  A    between atoms: _47  and  _49
REMARK   21  A    between atoms: _49  and  _50
REMARK   22  A    between atoms: _49  and  _52
REMARK   23  A    between atoms: _52  and  _53
REMARK   24  A    between atoms: _56  and  _58
REMARK   25  A    between atoms: _58  and  _59
REMARK   26  A    between atoms: _58  and  _61
REMARK   27  A    between atoms: _61  and  _62
REMARK   28  A    between atoms: _62  and  _63
REMARK   29  A    between atoms: _68  and  _70
REMARK   30  A    between atoms: _70  and  _71
REMARK   31  A    between atoms: _70  and  _73
REMARK   32  A    between atoms: _73  and  _74
REMARK   33  A    between atoms: _74  and  _75
REMARK   34  A    between atoms: _75  and  _76
REMARK   35  A    between atoms: _85  and  _87
REMARK   36  A    between atoms: _87  and  _88
REMARK   37  A    between atoms: _87  and  _90
REMARK   38  A    between atoms: _90  and  _91
REMARK   39  A    between atoms: _96  and  _98
REMARK   40  A    between atoms: _98  and  _99
REMARK   41  A    between atoms: _98  and  _101
REMARK   42  A    between atoms: _101  and  _102
REMARK   43  A    between atoms: _105  and  _107
REMARK   44  A    between atoms: _107  and  _108
REMARK   45  A    between atoms: _107  and  _110
REMARK   46  A    between atoms: _110  and  _111
REMARK   47  A    between atoms: _111  and  _146
REMARK   48  A    between atoms: _112  and  _114
REMARK   49  A    between atoms: _114  and  _115
REMARK   50  A    between atoms: _117  and  _119
REMARK   51  A    between atoms: _119  and  _120
REMARK   52  A    between atoms: _123  and  _125
REMARK   53  A    between atoms: _125  and  _126
REMARK   54  A    between atoms: _129  and  _131
REMARK   55  A    between atoms: _131  and  _132
REMARK   56  A    between atoms: _131  and  _134
REMARK   57  A    between atoms: _134  and  _135
REMARK   58  A    between atoms: _140  and  _142
REMARK   59  A    between atoms: _142  and  _143
REMARK   60  A    between atoms: _142  and  _145
REMARK   61  A    between atoms: _145  and  _146
REMARK   62  A    between atoms: _147  and  _149
REMARK   63  A    between atoms: _149  and  _150
REMARK   64  A    between atoms: _149  and  _152
REMARK   65  A    between atoms: _152  and  _153
REMARK   66  A    between atoms: _159  and  _161
REMARK   67  A    between atoms: _161  and  _162
REMARK   68  A    between atoms: _161  and  _164
REMARK   69  A    between atoms: _164  and  _165
REMARK   70  A    between atoms: _170  and  _171
REMARK   71  A    between atoms: _173  and  _175
REMARK   72  A    between atoms: _175  and  _176
REMARK   73  A    between atoms: _178  and  _180
REMARK   74  A    between atoms: _180  and  _181
REMARK   75  A    between atoms: _180  and  _183
REMARK   76  A    between atoms: _186  and  _188
REMARK   77  A    between atoms: _188  and  _189
REMARK   78  A    between atoms: _192  and  _194
REMARK   79  A    between atoms: _194  and  _195
REMARK   80  A    between atoms: _194  and  _197
REMARK   81  A    between atoms: _197  and  _198
REMARK   82  A    between atoms: _201  and  _203
REMARK   83  A    between atoms: _203  and  _204
REMARK   84  A    between atoms: _203  and  _206
REMARK   85  A    between atoms: _209  and  _211
REMARK   86  A    between atoms: _211  and  _212
REMARK   87  A    between atoms: _211  and  _214
REMARK   88  A    between atoms: _214  and  _215
REMARK   89  A    between atoms: _225  and  _227
REMARK   90  A    between atoms: _227  and  _228
REMARK   91  A    between atoms: _230  and  _232
REMARK   92  A    between atoms: _232  and  _233
REMARK   93  A    between atoms: _232  and  _235
REMARK   94  A    between atoms: _235  and  _236
REMARK   95  A    between atoms: _241  and  _242
REMARK   96  A    between atoms: _244  and  _246
REMARK   97  A    between atoms: _246  and  _247
REMARK   98  A    between atoms: _246  and  _249
REMARK   99  A    between atoms: _249  and  _250
REMARK  100  A    between atoms: _250  and  _251
REMARK  101  A    between atoms: _251  and  _252
REMARK  102  A    between atoms: _252  and  _253
REMARK  103  A    between atoms: _257  and  _259
REMARK  104  A    between atoms: _259  and  _260
REMARK  105  A    between atoms: _259  and  _262
REMARK  106  A    between atoms: _262  and  _263
REMARK  107  A    between atoms: _266  and  _268
REMARK  108  A    between atoms: _268  and  _269
REMARK  109  A    between atoms: _268  and  _271
REMARK  110  A    between atoms: _271  and  _272
REMARK  111  A    between atoms: _275  and  _277
REMARK  112  A    between atoms: _277  and  _278
REMARK  113  A    between atoms: _277  and  _280
REMARK  114  A    between atoms: _280  and  _281
REMARK  115  A    between atoms: _281  and  _282
REMARK  116  A    between atoms: _282  and  _283
REMARK  117  A    between atoms: _283  and  _284
REMARK  118  A    between atoms: _288  and  _290
REMARK  119  A    between atoms: _290  and  _291
REMARK  120  A    between atoms: _290  and  _293
REMARK  121  A    between atoms: _293  and  _294
REMARK  122  A    between atoms: _297  and  _299
REMARK  123  A    between atoms: _299  and  _300
REMARK  124  A    between atoms: _299  and  _302
REMARK  125  A    between atoms: _302  and  _303
REMARK  126  A    between atoms: _308  and  _309
REMARK  127  A    between atoms: _311  and  _313
REMARK  128  A    between atoms: _313  and  _314
REMARK  129  A    between atoms: _313  and  _316
REMARK  130  A    between atoms: _316  and  _317
REMARK  131  A    between atoms: _320  and  _322
REMARK  132  A    between atoms: _322  and  _323
REMARK  133  A    between atoms: _322  and  _325
REMARK  134  A    between atoms: _327  and  _329
REMARK  135  A    between atoms: _329  and  _330
REMARK  136  A    between atoms: _333  and  _335
REMARK  137  A    between atoms: _335  and  _336
REMARK  138  A    between atoms: _335  and  _338
REMARK  139  A    between atoms: _338  and  _339
REMARK  140  A    between atoms: _339  and  _340
REMARK  141  A    between atoms: _340  and  _341
REMARK  142  A    between atoms: _341  and  _342
REMARK  143  A    between atoms: _346  and  _348
REMARK  144  A    between atoms: _348  and  _349
REMARK  145  A    between atoms: _348  and  _351
REMARK  146  A    between atoms: _351  and  _352
REMARK  147  A    between atoms: _355  and  _357
REMARK  148  A    between atoms: _357  and  _358
REMARK  149  A    between atoms: _361  and  _363
REMARK  150  A    between atoms: _363  and  _364
REMARK  151  A    between atoms: _363  and  _366
REMARK  152  A    between atoms: _366  and  _367
REMARK  153  A    between atoms: _367  and  _490
REMARK  154  A    between atoms: _368  and  _370
REMARK  155  A    between atoms: _370  and  _371
REMARK  156  A    between atoms: _370  and  _373
REMARK  157  A    between atoms: _373  and  _374
REMARK  158  A    between atoms: _374  and  _375
REMARK  159  A    between atoms: _375  and  _376
REMARK  160  A    between atoms: _376  and  _377
REMARK  161  A    between atoms: _381  and  _383
REMARK  162  A    between atoms: _383  and  _384
REMARK  163  A    between atoms: _386  and  _388
REMARK  164  A    between atoms: _388  and  _389
REMARK  165  A    between atoms: _388  and  _391
REMARK  166  A    between atoms: _391  and  _392
REMARK  167  A    between atoms: _395  and  _397
REMARK  168  A    between atoms: _397  and  _398
REMARK  169  A    between atoms: _397  and  _400
REMARK  170  A    between atoms: _400  and  _401
REMARK  171  A    between atoms: _403  and  _405
REMARK  172  A    between atoms: _405  and  _406
REMARK  173  A    between atoms: _408  and  _410
REMARK  174  A    between atoms: _410  and  _411
REMARK  175  A    between atoms: _413  and  _415
REMARK  176  A    between atoms: _415  and  _416
REMARK  177  A    between atoms: _415  and  _418
REMARK  178  A    between atoms: _418  and  _419
REMARK  179  A    between atoms: _422  and  _424
REMARK  180  A    between atoms: _424  and  _425
REMARK  181  A    between atoms: _424  and  _427
REMARK  182  A    between atoms: _427  and  _428
REMARK  183  A    between atoms: _431  and  _433
REMARK  184  A    between atoms: _433  and  _434
REMARK  185  A    between atoms: _433  and  _436
REMARK  186  A    between atoms: _436  and  _437
REMARK  187  A    between atoms: _440  and  _442
REMARK  188  A    between atoms: _442  and  _443
REMARK  189  A    between atoms: _442  and  _445
REMARK  190  A    between atoms: _445  and  _446
REMARK  191  A    between atoms: _448  and  _450
REMARK  192  A    between atoms: _450  and  _451
REMARK  193  A    between atoms: _450  and  _453
REMARK  194  A    between atoms: _453  and  _454
REMARK  195  A    between atoms: _464  and  _466
REMARK  196  A    between atoms: _466  and  _467
REMARK  197  A    between atoms: _469  and  _471
REMARK  198  A    between atoms: _471  and  _472
REMARK  199  A    between atoms: _471  and  _474
REMARK  200  A    between atoms: _474  and  _475
REMARK  201  A    between atoms: _475  and  _476
REMARK  202  A    between atoms: _479  and  _481
REMARK  203  A    between atoms: _481  and  _482
REMARK  204  A    between atoms: _484  and  _486
REMARK  205  A    between atoms: _486  and  _487
REMARK  206  A    between atoms: _486  and  _489
REMARK  207  A    between atoms: _489  and  _490
REMARK  208  A    between atoms: _491  and  _493
REMARK  209  A    between atoms: _493  and  _494
REMARK  210  A    between atoms: _497  and  _499
REMARK  211  A    between atoms: _499  and  _500
REMARK  212  A    between atoms: _499  and  _502
REMARK  213  A    between atoms: _502  and  _503
REMARK  214  A    between atoms: _503  and  _504
REMARK  215  A    between atoms: _509  and  _511
REMARK  216  A    between atoms: _511  and  _512
REMARK  217  A    between atoms: _511  and  _514
REMARK  218  A    between atoms: _514  and  _515
REMARK  219  A    between atoms: _515  and  _516
REMARK  220  A    between atoms: _516  and  _517
REMARK  221  A    between atoms: _527  and  _528
REMARK  222  A    between atoms: _533  and  _535
REMARK  223  A    between atoms: _535  and  _536
REMARK  224  A    between atoms: _538  and  _540
REMARK  225  A    between atoms: _540  and  _541
REMARK  226  A    between atoms: _540  and  _543
REMARK  227  A    between atoms: _546  and  _548
REMARK  228  A    between atoms: _548  and  _549
REMARK  229  A    between atoms: _548  and  _551
REMARK  230  A    between atoms: _551  and  _552
REMARK  231  A    between atoms: _557  and  _558
REMARK  232  A    between atoms: _560  and  _562
REMARK  233  A    between atoms: _562  and  _563
REMARK  234  A    between atoms: _562  and  _565
REMARK  235  A    between atoms: _565  and  _566
REMARK                            x       y       z     vdW  Elec       q    Type
REMARK                         _______ _______ _______ _____ _____    ______ ____
ROOT
ATOM      1  C   ILE A   1      25.676 -12.903  30.083  0.00  0.00    +0.238 C 
ATOM      2  O   ILE A   1      26.712 -13.516  30.271  0.00  0.00    -0.274 OA
ATOM      3  N   CYS A   2      25.639 -11.697  29.497  0.00  0.00    -0.297 N 
ATOM      4  H   CYS A   2      24.716 -11.248  29.331  0.00  0.00    +0.150 HD
ENDROOT
BRANCH   1   5
ATOM      5  CA  ILE A   1      24.335 -13.572  30.423  0.00  0.00    +0.145 C 
BRANCH   5   6
ATOM      6  N   ILE A   1      24.416 -14.938  29.928  0.00  0.00    -0.238 NA
ATOM      7  H   ILE A   1      25.295 -15.468  30.093  0.00  0.00    +0.142 HD
ENDBRANCH   5   6
BRANCH   5   8
ATOM      8  CB  ILE A   1      23.916 -13.484  31.914  0.00  0.00    +0.025 C 
ATOM      9  CG2 ILE A   1      24.990 -14.016  32.881  0.00  0.00    +0.002 C 
BRANCH   8  10
ATOM     10  CG1 ILE A   1      23.435 -12.051  32.280  0.00  0.00    +0.002 C 
ATOM     11  CD1 ILE A   1      22.768 -11.939  33.674  0.00  0.00    +0.000 C 
ENDBRANCH   8  10
ENDBRANCH   5   8
ENDBRANCH   1   5
BRANCH   3  12
ATOM     12  CA  CYS A   2      26.851 -10.990  29.083  0.00  0.00    +0.160 C 
BRANCH  12  13
ATOM     13  C   CYS A   2      27.135  -9.809  29.945  0.00  0.00    +0.242 C 
ATOM     14  O   CYS A   2      26.224  -9.254  30.561  0.00  0.00    -0.273 OA
ATOM     15  N   ALA A   3      28.404  -9.415  29.979  0.00  0.00    -0.298 N 
ATOM     16  H   ALA A   3      29.101  -9.946  29.418  0.00  0.00    +0.150 HD
BRANCH  15  17
ATOM     17  CA  ALA A   3      28.869  -8.277  30.762  0.00  0.00    +0.137 C 
ATOM     18  CB  ALA A   3      29.182  -8.692  32.210  0.00  0.00    +0.030 C 
BRANCH  17  19
ATOM     19  C   ALA A   3      30.094  -7.679  30.122  0.00  0.00    +0.227 C 
ATOM     20  O   ALA A   3      31.014  -8.383  29.681  0.00  0.00    -0.286 OA
ENDBRANCH  17  19
ENDBRANCH  15  17
ENDBRANCH  12  13
BRANCH  12  21
ATOM     21  CB  CYS A   2      26.786 -10.599  27.610  0.00  0.00    +0.098 C 
ATOM     22  SG  CYS A   2      26.069 -11.877  26.544  0.00  0.00    -0.080 S 
ENDBRANCH  12  21
ENDBRANCH   3  12
TORSDOF 9
REMARK  Name = ../refined-set-2016/5e2p/5e2p_pocket.pdb
REMARK  235 active torsions:
REMARK  status: ('A' for Active; 'I' for Inactive)
REMARK    1  A    between atoms: _1  and  _5
REMARK    2  A    between atoms: _5  and  _6
REMARK    3  A    between atoms: _5  and  _8
REMARK    4  A    between atoms: _8  and  _9
REMARK    5  A    between atoms: _12  and  _14
REMARK    6  A    between atoms: _14  and  _15
REMARK    7  A    between atoms: _14  and  _17
REMARK    8  A    between atoms: _20  and  _22
REMARK    9  A    between atoms: _22  and  _23
REMARK   10  A    between atoms: _22  and  _25
REMARK   11  A    between atoms: _25  and  _26
REMARK   12  A    between atoms: _29  and  _31
REMARK   13  A    between atoms: _31  and  _32
REMARK   14  A    between atoms: _31  and  _34
REMARK   15  A    between atoms: _34  and  _35
REMARK   16  A    between atoms: _38  and  _40
REMARK   17  A    between atoms: _40  and  _41
REMARK   18  A    between atoms: _40  and  _43
REMARK   19  A    between atoms: _43  and  _44
REMARK   20  A    between atoms: _47  and  _49
REMARK   21  A    between atoms: _49  and  _50
REMARK   22  A    between atoms: _49  and  _52
REMARK   23  A    between atoms: _52  and  _53
REMARK   24  A    between atoms: _56  and  _58
REMARK   25  A    between atoms: _58  and  _59
REMARK   26  A    between atoms: _58  and  _61
REMARK   27  A    between atoms: _61  and  _62
REMARK   28  A    between atoms: _62  and  _63
REMARK   29  A    between atoms: _68  and  _70
REMARK   30  A    between atoms: _70  and  _71
REMARK   31  A    between atoms: _70  and  _73
REMARK   32  A    between atoms: _73  and  _74
REMARK   33  A    between atoms: _74  and  _75
REMARK   34  A    between atoms: _75  and  _76
REMARK   35  A    between atoms: _85  and  _87
REMARK   36  A    between atoms: _87  and  _88
REMARK   37  A    between atoms: _87  and  _90
REMARK   38  A    between atoms: _90  and  _91
REMARK   39  A    between atoms: _96  and  _98
REMARK   40  A    between atoms: _98  and  _99
REMARK   41  A    between atoms: _98  and  _101
REMARK   42  A    between atoms: _101  and  _102
REMARK   43  A    between atoms: _105  and  _107
REMARK   44  A    between atoms: _107  and  _108
REMARK   45  A    between atoms: _107  and  _110
REMARK   46  A    between atoms: _110  and  _111
REMARK   47  A    between atoms: _111  and  _146
REMARK   48  A    between atoms: _112  and  _114
REMARK   49  A    between atoms: _114  and  _115
REMARK   50  A    between atoms: _117  and  _119
REMARK   51  A    between atoms: _119  and  _120
REMARK   52  A    between atoms: _123  and  _125
REMARK   53  A    between atoms: _125  and  _126
REMARK   54  A    between atoms: _129  and  _131
REMARK   55  A    between atoms: _131  and  _132
REMARK   56  A    between atoms: _131  and  _134
REMARK   57  A    between atoms: _134  and  _135
REMARK   58  A    between atoms: _140  and  _142
REMARK   59  A    between atoms: _142  and  _143
REMARK   60  A    between atoms: _142  and  _145
REMARK   61  A    between atoms: _145  and  _146
REMARK   62  A    between atoms: _147  and  _149
REMARK   63  A    between atoms: _149  and  _150
REMARK   64  A    between atoms: _149  and  _152
REMARK   65  A    between atoms: _152  and  _153
REMARK   66  A    between atoms: _159  and  _161
REMARK   67  A    between atoms: _161  and  _162
REMARK   68  A    between atoms: _161  and  _164
REMARK   69  A    between atoms: _164  and  _165
REMARK   70  A    between atoms: _170  and  _171
REMARK   71  A    between atoms: _173  and  _175
REMARK   72  A    between atoms: _175  and  _176
REMARK   73  A    between atoms: _178  and  _180
REMARK   74  A    between atoms: _180  and  _181
REMARK   75  A    between atoms: _180  and  _183
REMARK   76  A    between atoms: _186  and  _188
REMARK   77  A    between atoms: _188  and  _189
REMARK   78  A    between atoms: _192  and  _194
REMARK   79  A    between atoms: _194  and  _195
REMARK   80  A    between atoms: _194  and  _197
REMARK   81  A    between atoms: _197  and  _198
REMARK   82  A    between atoms: _201  and  _203
REMARK   83  A    between atoms: _203  and  _204
REMARK   84  A    between atoms: _203  and  _206
REMARK   85  A    between atoms: _209  and  _211
REMARK   86  A    between atoms: _211  and  _212
REMARK   87  A    between atoms: _211  and  _214
REMARK   88  A    between atoms: _214  and  _215
REMARK   89  A    between atoms: _225  and  _227
REMARK   90  A    between atoms: _227  and  _228
REMARK   91  A    between atoms: _230  and  _232
REMARK   92  A    between atoms: _232  and  _233
REMARK   93  A    between atoms: _232  and  _235
REMARK   94  A    between atoms: _235  and  _236
REMARK   95  A    between atoms: _241  and  _242
REMARK   96  A    between atoms: _244  and  _246
REMARK   97  A    between atoms: _246  and  _247
REMARK   98  A    between atoms: _246  and  _249
REMARK   99  A    between atoms: _249  and  _250
REMARK  100  A    between atoms: _250  and  _251
REMARK  101  A    between atoms: _251  and  _252
REMARK  102  A    between atoms: _252  and  _253
REMARK  103  A    between atoms: _257  and  _259
REMARK  104  A    between atoms: _259  and  _260
REMARK  105  A    between atoms: _259  and  _262
REMARK  106  A    between atoms: _262  and  _263
REMARK  107  A    between atoms: _266  and  _268
REMARK  108  A    between atoms: _268  and  _269
REMARK  109  A    between atoms: _268  and  _271
REMARK  110  A    between atoms: _271  and  _272
REMARK  111  A    between atoms: _275  and  _277
REMARK  112  A    between atoms: _277  and  _278
REMARK  113  A    between atoms: _277  and  _280
REMARK  114  A    between atoms: _280  and  _281
REMARK  115  A    between atoms: _281  and  _282
REMARK  116  A    between atoms: _282  and  _283
REMARK  117  A    between atoms: _283  and  _284
REMARK  118  A    between atoms: _288  and  _290
REMARK  119  A    between atoms: _290  and  _291
REMARK  120  A    between atoms: _290  and  _293
REMARK  121  A    between atoms: _293  and  _294
REMARK  122  A    between atoms: _297  and  _299
REMARK  123  A    between atoms: _299  and  _300
REMARK  124  A    between atoms: _299  and  _302
REMARK  125  A    between atoms: _302  and  _303
REMARK  126  A    between atoms: _308  and  _309
REMARK  127  A    between atoms: _311  and  _313
REMARK  128  A    between atoms: _313  and  _314
REMARK  129  A    between atoms: _313  and  _316
REMARK  130  A    between atoms: _316  and  _317
REMARK  131  A    between atoms: _320  and  _322
REMARK  132  A    between atoms: _322  and  _323
REMARK  133  A    between atoms: _322  and  _325
REMARK  134  A    between atoms: _327  and  _329
REMARK  135  A    between atoms: _329  and  _330
REMARK  136  A    between atoms: _333  and  _335
REMARK  137  A    between atoms: _335  and  _336
REMARK  138  A    between atoms: _335  and  _338
REMARK  139  A    between atoms: _338  and  _339
REMARK  140  A    between atoms: _339  and  _340
REMARK  141  A    between atoms: _340  and  _341
REMARK  142  A    between atoms: _341  and  _342
REMARK  143  A    between atoms: _346  and  _348
REMARK  144  A    between atoms: _348  and  _349
REMARK  145  A    between atoms: _348  and  _351
REMARK  146  A    between atoms: _351  and  _352
REMARK  147  A    between atoms: _355  and  _357
REMARK  148  A    between atoms: _357  and  _358
REMARK  149  A    between atoms: _361  and  _363
REMARK  150  A    between atoms: _363  and  _364
REMARK  151  A    between atoms: _363  and  _366
REMARK  152  A    between atoms: _366  and  _367
REMARK  153  A    between atoms: _367  and  _490
REMARK  154  A    between atoms: _368  and  _370
REMARK  155  A    between atoms: _370  and  _371
REMARK  156  A    between atoms: _370  and  _373
REMARK  157  A    between atoms: _373  and  _374
REMARK  158  A    between atoms: _374  and  _375
REMARK  159  A    between atoms: _375  and  _376
REMARK  160  A    between atoms: _376  and  _377
REMARK  161  A    between atoms: _381  and  _383
REMARK  162  A    between atoms: _383  and  _384
REMARK  163  A    between atoms: _386  and  _388
REMARK  164  A    between atoms: _388  and  _389
REMARK  165  A    between atoms: _388  and  _391
REMARK  166  A    between atoms: _391  and  _392
REMARK  167  A    between atoms: _395  and  _397
REMARK  168  A    between atoms: _397  and  _398
REMARK  169  A    between atoms: _397  and  _400
REMARK  170  A    between atoms: _400  and  _401
REMARK  171  A    between atoms: _403  and  _405
REMARK  172  A    between atoms: _405  and  _406
REMARK  173  A    between atoms: _408  and  _410
REMARK  174  A    between atoms: _410  and  _411
REMARK  175  A    between atoms: _413  and  _415
REMARK  176  A    between atoms: _415  and  _416
REMARK  177  A    between atoms: _415  and  _418
REMARK  178  A    between atoms: _418  and  _419
REMARK  179  A    between atoms: _422  and  _424
REMARK  180  A    between atoms: _424  and  _425
REMARK  181  A    between atoms: _424  and  _427
REMARK  182  A    between atoms: _427  and  _428
REMARK  183  A    between atoms: _431  and  _433
REMARK  184  A    between atoms: _433  and  _434
REMARK  185  A    between atoms: _433  and  _436
REMARK  186  A    between atoms: _436  and  _437
REMARK  187  A    between atoms: _440  and  _442
REMARK  188  A    between atoms: _442  and  _443
REMARK  189  A    between atoms: _442  and  _445
REMARK  190  A    between atoms: _445  and  _446
REMARK  191  A    between atoms: _448  and  _450
REMARK  192  A    between atoms: _450  and  _451
REMARK  193  A    between atoms: _450  and  _453
REMARK  194  A    between atoms: _453  and  _454
REMARK  195  A    between atoms: _464  and  _466
REMARK  196  A    between atoms: _466  and  _467
REMARK  197  A    between atoms: _469  and  _471
REMARK  198  A    between atoms: _471  and  _472
REMARK  199  A    between atoms: _471  and  _474
REMARK  200  A    between atoms: _474  and  _475
REMARK  201  A    between atoms: _475  and  _476
REMARK  202  A    between atoms: _479  and  _481
REMARK  203  A    between atoms: _481  and  _482
REMARK  204  A    between atoms: _484  and  _486
REMARK  205  A    between atoms: _486  and  _487
REMARK  206  A    between atoms: _486  and  _489
REMARK  207  A    between atoms: _489  and  _490
REMARK  208  A    between atoms: _491  and  _493
REMARK  209  A    between atoms: _493  and  _494
REMARK  210  A    between atoms: _497  and  _499
REMARK  211  A    between atoms: _499  and  _500
REMARK  212  A    between atoms: _499  and  _502
REMARK  213  A    between atoms: _502  and  _503
REMARK  214  A    between atoms: _503  and  _504
REMARK  215  A    between atoms: _509  and  _511
REMARK  216  A    between atoms: _511  and  _512
REMARK  217  A    between atoms: _511  and  _514
REMARK  218  A    between atoms: _514  and  _515
REMARK  219  A    between atoms: _515  and  _516
REMARK  220  A    between atoms: _516  and  _517
REMARK  221  A    between atoms: _527  and  _528
REMARK  222  A    between atoms: _533  and  _535
REMARK  223  A    between atoms: _535  and  _536
REMARK  224  A    between atoms: _538  and  _540
REMARK  225  A    between atoms: _540  and  _541
REMARK  226  A    between atoms: _540  and  _543
REMARK  227  A    between atoms: _546  and  _548
REMARK  228  A    between atoms: _548  and  _549
REMARK  229  A    between atoms: _548  and  _551
REMARK  230  A    between atoms: _551  and  _552
REMARK  231  A    between atoms: _557  and  _558
REMARK  232  A    between atoms: _560  and  _562
REMARK  233  A    between atoms: _562  and  _563
REMARK  234  A    between atoms: _562  and  _565
REMARK  235  A    between atoms: _565  and  _566
REMARK                            x       y       z     vdW  Elec       q    Type
REMARK                         _______ _______ _______ _____ _____    ______ ____
ROOT
ATOM      1  CA  CYS A   8      39.687 -10.245  25.921  0.00  0.00    +0.160 C 
ENDROOT
BRANCH   1   2
ATOM      2  C   CYS A   8      39.496  -8.734  25.964  0.00  0.00    +0.242 C 
ATOM      3  N   ALA A   9      38.401  -8.256  26.592  0.00  0.00    -0.297 N 
ATOM      4  H   ALA A   9      37.725  -8.963  26.946  0.00  0.00    +0.150 HD
ATOM      5  O   CYS A   8      40.372  -8.022  25.486  0.00  0.00    -0.273 OA
BRANCH   3   6
ATOM      6  CA  ALA A   9      38.060  -6.852  26.829  0.00  0.00    +0.149 C 
ATOM      7  CB  ALA A   9      38.989  -6.241  27.882  0.00  0.00    +0.031 C 
BRANCH   6   8
ATOM      8  C   ALA A   9      38.035  -5.990  25.575  0.00  0.00    +0.241 C 
ATOM      9  O   ALA A   9      38.365  -4.799  25.641  0.00  0.00    -0.273 OA
ATOM     10  N   GLN A  10      37.639  -6.575  24.425  0.00  0.00    -0.298 N 
ATOM     11  H   GLN A  10      37.381  -7.582  24.410  0.00  0.00    +0.150 HD
BRANCH  10  12
ATOM     12  CA  GLN A  10      37.577  -5.782  23.205  0.00  0.00    +0.137 C 
BRANCH  12  13
ATOM     13  C   GLN A  10      36.348  -4.913  23.201  0.00  0.00    +0.227 C 
ATOM     14  O   GLN A  10      35.327  -5.252  23.802  0.00  0.00    -0.286 OA
ENDBRANCH  12  13
BRANCH  12  15
ATOM     15  CB  GLN A  10      37.597  -6.663  21.954  0.00  0.00    +0.037 C 
BRANCH  15  16
ATOM     16  CG  GLN A  10      38.853  -7.519  21.851  0.00  0.00    +0.087 C 
BRANCH  16  17
ATOM     17  CD  GLN A  10      39.022  -7.971  20.450  0.00  0.00    +0.219 C 
ATOM     18  NE2 GLN A  10      38.305  -9.035  20.078  0.00  0.00    -0.329 N 
ATOM     19 HE21 GLN A  10      37.711  -9.530  20.773  0.00  0.00    +0.145 HD
ATOM     20 HE22 GLN A  10      38.341  -9.368  19.093  0.00  0.00    +0.145 HD
ATOM     21  OE1 GLN A  10      39.747  -7.337  19.679  0.00  0.00    -0.275 OA
ENDBRANCH  16  17
ENDBRANCH  15  16
ENDBRANCH  12  15
ENDBRANCH  10  12
ENDBRANCH   6   8
ENDBRANCH   3   6
ENDBRANCH   1   2
BRANCH   1  22
ATOM     22  N   CYS A   8      39.841 -10.712  24.532  0.00  0.00    -0.296 N 
ATOM     23  H   CYS A   8      40.628 -10.336  23.965  0.00  0.00    +0.150 HD
ATOM     24  C   GLY A   7      39.001 -11.611  23.961  0.00  0.00    +0.243 C 
ATOM     25  O   GLY A   7      38.042 -12.094  24.568  0.00  0.00    -0.273 OA
BRANCH  24  26
ATOM     26  CA  GLY A   7      39.246 -12.022  22.515  0.00  0.00    +0.176 C 
BRANCH  26  27
ATOM     27  N   GLY A   7      38.066 -12.702  21.971  0.00  0.00    -0.295 N 
ATOM     28  H   GLY A   7      38.110 -13.732  21.837  0.00  0.00    +0.150 HD
ATOM     29  C   GLU A   6      36.940 -12.070  21.639  0.00  0.00    +0.241 C 
ATOM     30  O   GLU A   6      36.777 -10.852  21.761  0.00  0.00    -0.273 OA
BRANCH  29  31
ATOM     31  CA  GLU A   6      35.766 -12.944  21.149  0.00  0.00    +0.149 C 
BRANCH  31  32
ATOM     32  N   GLU A   6      34.878 -13.098  22.315  0.00  0.00    -0.297 N 
ATOM     33  C   GLY A   5      35.027 -14.139  23.161  0.00  0.00    +0.243 C 
ATOM     34  O   GLY A   5      35.846 -15.046  22.970  0.00  0.00    -0.273 OA
ATOM     35  H   GLU A   6      34.129 -12.397  22.488  0.00  0.00    +0.150 HD
BRANCH  33  36
ATOM     36  CA  GLY A   5      34.119 -14.195  24.370  0.00  0.00    +0.176 C 
BRANCH  36  37
ATOM     37  N   GLY A   5      34.149 -15.534  24.956  0.00  0.00    -0.295 N 
ATOM     38  C   TRP A   4      33.387 -15.902  25.976  0.00  0.00    +0.241 C 
ATOM     39  O   TRP A   4      32.634 -15.126  26.552  0.00  0.00    -0.273 OA
ATOM     40  H   GLY A   5      34.803 -16.234  24.551  0.00  0.00    +0.150 HD
BRANCH  38  41
ATOM     41  CA  TRP A   4      33.523 -17.361  26.436  0.00  0.00    +0.153 C 
BRANCH  41  42
ATOM     42  N   TRP A   4      32.852 -17.639  27.714  0.00  0.00    -0.297 N 
ATOM     43  C   SER A   3      33.266 -18.658  28.479  0.00  0.00    +0.243 C 
ATOM     44  O   SER A   3      34.247 -19.359  28.196  0.00  0.00    -0.273 OA
ATOM     45  H   TRP A   4      32.057 -17.045  28.024  0.00  0.00    +0.150 HD
BRANCH  43  46
ATOM     46  CA  SER A   3      32.490 -18.948  29.750  0.00  0.00    +0.178 C 
BRANCH  46  47
ATOM     47  N   SER A   3      32.601 -17.930  30.787  0.00  0.00    -0.295 N 
ATOM     48  C   THR A   2      33.070 -18.231  32.016  0.00  0.00    +0.243 C 
ATOM     49  O   THR A   2      33.499 -19.346  32.321  0.00  0.00    -0.273 OA
ATOM     50  H   SER A   3      32.313 -16.953  30.576  0.00  0.00    +0.150 HD
BRANCH  48  51
ATOM     51  CA  THR A   2      33.017 -17.134  33.064  0.00  0.00    +0.176 C 
BRANCH  51  52
ATOM     52  N   THR A   2      32.199 -17.601  34.201  0.00  0.00    -0.295 N 
ATOM     53  H   THR A   2      32.618 -17.559  35.152  0.00  0.00    +0.150 HD
ATOM     54  C   ILE A   1      30.941 -18.080  34.085  0.00  0.00    +0.238 C 
ATOM     55  O   ILE A   1      30.344 -18.141  33.011  0.00  0.00    -0.274 OA
BRANCH  54  56
ATOM     56  CA  ILE A   1      30.231 -18.536  35.358  0.00  0.00    +0.145 C 
BRANCH  56  57
ATOM     57  CB  ILE A   1      29.953 -20.066  35.285  0.00  0.00    +0.025 C 
ATOM     58  CG2 ILE A   1      31.258 -20.846  35.282  0.00  0.00    +0.002 C 
BRANCH  57  59
ATOM     59  CG1 ILE A   1      28.990 -20.554  36.395  0.00  0.00    +0.002 C 
ATOM     60  CD1 ILE A   1      28.442 -21.973  36.158  0.00  0.00    +0.000 C 
ENDBRANCH  57  59
ENDBRANCH  56  57
BRANCH  56  61
ATOM     61  N   ILE A   1      29.005 -17.732  35.416  0.00  0.00    -0.238 NA
ATOM     62  H   ILE A   1      28.346 -17.816  34.615  0.00  0.00    +0.142 HD
ENDBRANCH  56  61
ENDBRANCH  54  56
ENDBRANCH  51  52
BRANCH  51  63
ATOM     63  CB  THR A   2      34.390 -16.712  33.590  0.00  0.00    +0.137 C 
ATOM     64  CG2 THR A   2      35.321 -16.182  32.491  0.00  0.00    +0.034 C 
BRANCH  63  65
ATOM     65  OG1 THR A   2      34.191 -15.735  34.606  0.00  0.00    -0.382 OA
ATOM     66  HG1 THR A   2      35.069 -15.447  34.962  0.00  0.00    +0.210 HD
ENDBRANCH  63  65
ENDBRANCH  51  63
ENDBRANCH  48  51
ENDBRANCH  46  47
BRANCH  46  67
ATOM     67  CB  SER A   3      31.014 -19.208  29.438  0.00  0.00    +0.166 C 
BRANCH  67  68
ATOM     68  OG  SER A   3      30.822 -20.324  28.592  0.00  0.00    -0.380 OA
ATOM     69  H   SER A   3      29.854 -20.446  28.423  0.00  0.00    +0.211 HD
ENDBRANCH  67  68
ENDBRANCH  46  67
ENDBRANCH  43  46
ENDBRANCH  41  42
BRANCH  41  70
ATOM     70  CB  TRP A   4      33.023 -18.369  25.357  0.00  0.00    +0.057 C 
BRANCH  70  71
ATOM     71  CG  TRP A   4      31.583 -18.205  24.981  0.00  0.00    -0.002 A 
ATOM     72  CD1 TRP A   4      30.492 -18.695  25.639  0.00  0.00    +0.068 A 
ATOM     73  NE1 TRP A   4      29.337 -18.261  25.024  0.00  0.00    -0.352 N 
ATOM     74  HE1 TRP A   4      28.369 -18.444  25.358  0.00  0.00    +0.166 HD
ATOM     75  CE2 TRP A   4      29.671 -17.547  23.899  0.00  0.00    +0.056 A 
ATOM     76  CZ2 TRP A   4      28.863 -16.925  22.939  0.00  0.00    +0.017 A 
ATOM     77  CH2 TRP A   4      29.497 -16.202  21.948  0.00  0.00    +0.001 A 
ATOM     78  CZ3 TRP A   4      30.887 -16.060  21.912  0.00  0.00    +0.000 A 
ATOM     79  CE3 TRP A   4      31.688 -16.675  22.854  0.00  0.00    +0.001 A 
ATOM     80  CD2 TRP A   4      31.079 -17.461  23.859  0.00  0.00    +0.013 A 
ENDBRANCH  70  71
ENDBRANCH  41  70
ENDBRANCH  38  41
ENDBRANCH  36  37
ENDBRANCH  33  36
ENDBRANCH  31  32
BRANCH  31  81
ATOM     81  CB  GLU A   6      35.028 -12.261  19.959  0.00  0.00    +0.041 C 
BRANCH  81  82
ATOM     82  CG  GLU A   6      35.874 -12.157  18.693  0.00  0.00    +0.116 C 
BRANCH  82  83
ATOM     83  CD  GLU A   6      36.486 -13.477  18.260  0.00  0.00    +0.365 C 
ATOM     84  OE2 GLU A   6      37.730 -13.600  18.265  0.00  0.00    -0.246 OA
ATOM     85  OE1 GLU A   6      35.710 -14.435  18.072  0.00  0.00    -0.246 OA
ENDBRANCH  82  83
ENDBRANCH  81  82
ENDBRANCH  31  81
ENDBRANCH  29  31
ENDBRANCH  26  27
ENDBRANCH  24  26
ENDBRANCH   1  22
BRANCH   1  86
ATOM     86  CB  CYS A   8      40.890 -10.649  26.767  0.00  0.00    +0.098 C 
BRANCH  86  87
ATOM     87  SG  CYS A   8      41.261 -12.410  26.715  0.00  0.00    -0.080 S 
BRANCH  87  88
ATOM     88  SG  TRP A   4      42.692 -12.754  28.145  0.00  0.00    -0.080 S 
BRANCH  88  89
ATOM     89  CB  TRP A   4      41.823 -12.581  29.736  0.00  0.00    +0.098 C 
BRANCH  89  90
ATOM     90  CA  TRP A   4      40.662 -13.566  29.923  0.00  0.00    +0.160 C 
BRANCH  90  91
ATOM     91  C   TRP A   4      41.128 -14.990  30.233  0.00  0.00    +0.242 C 
ATOM     92  O   TRP A   4      40.583 -15.608  31.139  0.00  0.00    -0.273 OA
ATOM     93  N   GLY A   5      42.100 -15.530  29.482  0.00  0.00    -0.297 N 
ATOM     94  H   GLY A   5      42.539 -14.941  28.745  0.00  0.00    +0.150 HD
BRANCH  93  95
ATOM     95  CA  GLY A   5      42.576 -16.910  29.647  0.00  0.00    +0.149 C 
BRANCH  95  96
ATOM     96  C   GLY A   5      42.979 -17.237  31.076  0.00  0.00    +0.241 C 
ATOM     97  O   GLY A   5      43.788 -16.528  31.663  0.00  0.00    -0.273 OA
ATOM     98  N   GLU A   6      42.382 -18.288  31.633  0.00  0.00    -0.295 N 
ATOM     99  H   GLU A   6      41.697 -18.824  31.063  0.00  0.00    +0.150 HD
BRANCH  98 100
ATOM    100  CA  GLU A   6      42.637 -18.729  33.001  0.00  0.00    +0.176 C 
BRANCH 100 101
ATOM    101  C   GLU A   6      41.552 -18.327  33.975  0.00  0.00    +0.243 C 
ATOM    102  O   GLU A   6      41.532 -18.797  35.121  0.00  0.00    -0.273 OA
ATOM    103  N   GLY A   7      40.648 -17.437  33.532  0.00  0.00    -0.296 N 
ATOM    104  H   GLY A   7      40.722 -17.081  32.558  0.00  0.00    +0.150 HD
BRANCH 103 105
ATOM    105  CA  GLY A   7      39.556 -16.954  34.393  0.00  0.00    +0.160 C 
BRANCH 105 106
ATOM    106  C   GLY A   7      38.309 -17.832  34.318  0.00  0.00    +0.241 C 
ATOM    107  O   GLY A   7      37.474 -17.827  35.238  0.00  0.00    -0.273 OA
ATOM    108  N   CYS A   8      38.188 -18.594  33.221  0.00  0.00    -0.295 N 
ATOM    109  H   CYS A   8      38.966 -18.597  32.530  0.00  0.00    +0.150 HD
BRANCH 108 110
ATOM    110  CA  CYS A   8      37.009 -19.422  32.952  0.00  0.00    +0.178 C 
BRANCH 110 111
ATOM    111  C   CYS A   8      36.658 -20.342  34.103  0.00  0.00    +0.243 C 
ATOM    112  O   CYS A   8      37.554 -20.831  34.810  0.00  0.00    -0.273 OA
ATOM    113  N   ALA A   9      35.354 -20.490  34.335  0.00  0.00    -0.295 N 
ATOM    114  H   ALA A   9      34.673 -19.992  33.727  0.00  0.00    +0.150 HD
BRANCH 113 115
ATOM    115  CA  ALA A   9      34.855 -21.331  35.418  0.00  0.00    +0.176 C 
BRANCH 115 116
ATOM    116  C   ALA A   9      34.622 -20.555  36.688  0.00  0.00    +0.243 C 
ATOM    117  O   ALA A   9      33.863 -20.977  37.563  0.00  0.00    -0.273 OA
ATOM    118  N   GLN A  10      35.272 -19.397  36.775  0.00  0.00    -0.296 N 
ATOM    119  H   GLN A  10      35.869 -19.104  35.976  0.00  0.00    +0.150 HD
BRANCH 118 120
ATOM    120  CA  GLN A  10      35.188 -18.527  37.926  0.00  0.00    +0.163 C 
BRANCH 120 121
ATOM    121  C   GLN A  10      33.849 -17.843  37.993  0.00  0.00    +0.229 C 
ATOM    122  O   GLN A  10      33.086 -17.845  37.022  0.00  0.00    -0.286 OA
ENDBRANCH 120 121
ENDBRANCH 118 120
ENDBRANCH 115 116
ENDBRANCH 113 115
ENDBRANCH 110 111
BRANCH 110 123
ATOM    123  CB  CYS A   8      37.145 -20.176  31.640  0.00  0.00    +0.166 C 
BRANCH 123 124
ATOM    124  O   CYS A   8      38.008 -21.281  31.837  0.00  0.00    -0.380 OA
ATOM    125  H   CYS A   8      38.896 -20.957  32.132  0.00  0.00    +0.211 HD
ENDBRANCH 123 124
ENDBRANCH 110 123
ENDBRANCH 108 110
ENDBRANCH 105 106
BRANCH 105 126
ATOM    126  CB  GLY A   7      39.216 -15.511  34.041  0.00  0.00    +0.143 C 
BRANCH 126 127
ATOM    127  CG  GLY A   7      40.307 -14.541  34.409  0.00  0.00    +0.367 C 
ATOM    128  OD2 GLY A   7      40.889 -14.693  35.505  0.00  0.00    -0.246 OA
ATOM    129  OD1 GLY A   7      40.548 -13.587  33.624  0.00  0.00    -0.246 OA
ENDBRANCH 126 127
ENDBRANCH 105 126
ENDBRANCH 103 105
ENDBRANCH 100 101
ENDBRANCH  98 100
ENDBRANCH  95  96
BRANCH  95 130
ATOM    130  CB  GLY A   5      43.699 -17.191  28.659  0.00  0.00    +0.029 C 
BRANCH 130 131
ATOM    131  CG  GLY A   5      43.204 -17.179  27.227  0.00  0.00    +0.000 C 
BRANCH 131 132
ATOM    132  CD  GLY A   5      44.304 -17.589  26.277  0.00  0.00    -0.024 C 
BRANCH 132 133
ATOM    133  CE  GLY A   5      43.792 -17.798  24.873  0.00  0.00    -0.086 C 
BRANCH 133 134
ATOM    134  NZ  GLY A   5      44.670 -18.703  24.082  0.00  0.00    +0.380 N 
ATOM    135  HZ1 GLY A   5      44.720 -19.631  24.549  0.00  0.00    -0.089 HD
ATOM    136  HZ2 GLY A   5      45.624 -18.292  24.021  0.00  0.00    -0.089 HD
ATOM    137  HZ3 GLY A   5      44.278 -18.816  23.126  0.00  0.00    -0.089 HD
ENDBRANCH 133 134
ENDBRANCH 132 133
ENDBRANCH 131 132
ENDBRANCH 130 131
ENDBRANCH  95 130
ENDBRANCH  93  95
ENDBRANCH  90  91
BRANCH  90 139
ATOM    138  C   SER A   3      38.736 -12.303  30.747  0.00  0.00    +0.241 C 
ATOM    139  N   TRP A   4      39.739 -13.148  30.975  0.00  0.00    -0.296 N 
ATOM    140  H   TRP A   4      39.870 -13.524  31.936  0.00  0.00    +0.150 HD
ATOM    141  O   SER A   3      38.584 -11.730  29.654  0.00  0.00    -0.273 OA
BRANCH 138 142
ATOM    142  CA  SER A   3      37.770 -12.040  31.919  0.00  0.00    +0.149 C 
ATOM    143  CB  SER A   3      36.758 -13.165  32.013  0.00  0.00    +0.031 C 
BRANCH 142 146
ATOM    144  C   THR A   2      37.634  -9.572  31.790  0.00  0.00    +0.241 C 
ATOM    145  O   THR A   2      38.744  -9.380  32.291  0.00  0.00    -0.273 OA
ATOM    146  N   SER A   3      37.091 -10.796  31.618  0.00  0.00    -0.297 N 
ATOM    147  H   SER A   3      36.122 -10.849  31.245  0.00  0.00    +0.150 HD
BRANCH 144 148
ATOM    148  CA  THR A   2      36.875  -8.433  31.139  0.00  0.00    +0.160 C 
BRANCH 148 150
ATOM    149  C   ILE A   1      36.882  -5.975  31.241  0.00  0.00    +0.238 C 
ATOM    150  N   THR A   2      37.492  -7.129  31.496  0.00  0.00    -0.297 N 
ATOM    151  H   THR A   2      38.424  -7.119  31.957  0.00  0.00    +0.150 HD
ATOM    152  O   ILE A   1      35.782  -5.910  30.699  0.00  0.00    -0.274 OA
BRANCH 149 153
ATOM    153  CA  ILE A   1      37.619  -4.699  31.608  0.00  0.00    +0.145 C 
BRANCH 153 154
ATOM    154  N   ILE A   1      37.743  -3.860  30.409  0.00  0.00    -0.238 NA
ATOM    155  H   ILE A   1      36.896  -3.684  29.831  0.00  0.00    +0.142 HD
ENDBRANCH 153 154
BRANCH 153 156
ATOM    156  CB  ILE A   1      36.916  -3.953  32.762  0.00  0.00    +0.026 C 
BRANCH 156 157
ATOM    157  CG  ILE A   1      37.703  -2.780  33.286  0.00  0.00    -0.000 C 
BRANCH 157 158
ATOM    158  CD  ILE A   1      37.191  -2.349  34.631  0.00  0.00    -0.024 C 
BRANCH 158 159
ATOM    159  CE  ILE A   1      37.918  -1.131  35.148  0.00  0.00    -0.086 C 
BRANCH 159 160
ATOM    160  NZ  ILE A   1      37.259  -0.621  36.377  0.00  0.00    +0.380 N 
ATOM    161  HZ1 ILE A   1      37.272  -1.361  37.108  0.00  0.00    -0.089 HD
ATOM    162  HZ2 ILE A   1      37.770   0.217  36.721  0.00  0.00    -0.089 HD
ATOM    163  HZ3 ILE A   1      36.275  -0.363  36.160  0.00  0.00    -0.089 HD
ENDBRANCH 159 160
ENDBRANCH 158 159
ENDBRANCH 157 158
ENDBRANCH 156 157
ENDBRANCH 153 156
ENDBRANCH 149 153
ENDBRANCH 148 150
BRANCH 148 164
ATOM    164  CB  THR A   2      37.018  -8.641  29.598  0.00  0.00    +0.143 C 
BRANCH 164 165
ATOM    165  CG  THR A   2      36.125  -9.653  28.886  0.00  0.00    +0.367 C 
ATOM    166  OD2 THR A   2      35.156 -10.152  29.518  0.00  0.00    -0.246 OA
ATOM    167  OD1 THR A   2      36.366  -9.912  27.681  0.00  0.00    -0.246 OA
ENDBRANCH 164 165
ENDBRANCH 148 164
ENDBRANCH 144 148
ENDBRANCH 142 146
ENDBRANCH 138 142
ENDBRANCH  90 139
ENDBRANCH  89  90
ENDBRANCH  88  89
ENDBRANCH  87  88
ENDBRANCH  86  87
ENDBRANCH   1  86
TORSDOF 75
REMARK  Name = ../refined-set-2016/5e2p/5e2p_pocket.pdb
REMARK  235 active torsions:
REMARK  status: ('A' for Active; 'I' for Inactive)
REMARK    1  A    between atoms: _1  and  _5
REMARK    2  A    between atoms: _5  and  _6
REMARK    3  A    between atoms: _5  and  _8
REMARK    4  A    between atoms: _8  and  _9
REMARK    5  A    between atoms: _12  and  _14
REMARK    6  A    between atoms: _14  and  _15
REMARK    7  A    between atoms: _14  and  _17
REMARK    8  A    between atoms: _20  and  _22
REMARK    9  A    between atoms: _22  and  _23
REMARK   10  A    between atoms: _22  and  _25
REMARK   11  A    between atoms: _25  and  _26
REMARK   12  A    between atoms: _29  and  _31
REMARK   13  A    between atoms: _31  and  _32
REMARK   14  A    between atoms: _31  and  _34
REMARK   15  A    between atoms: _34  and  _35
REMARK   16  A    between atoms: _38  and  _40
REMARK   17  A    between atoms: _40  and  _41
REMARK   18  A    between atoms: _40  and  _43
REMARK   19  A    between atoms: _43  and  _44
REMARK   20  A    between atoms: _47  and  _49
REMARK   21  A    between atoms: _49  and  _50
REMARK   22  A    between atoms: _49  and  _52
REMARK   23  A    between atoms: _52  and  _53
REMARK   24  A    between atoms: _56  and  _58
REMARK   25  A    between atoms: _58  and  _59
REMARK   26  A    between atoms: _58  and  _61
REMARK   27  A    between atoms: _61  and  _62
REMARK   28  A    between atoms: _62  and  _63
REMARK   29  A    between atoms: _68  and  _70
REMARK   30  A    between atoms: _70  and  _71
REMARK   31  A    between atoms: _70  and  _73
REMARK   32  A    between atoms: _73  and  _74
REMARK   33  A    between atoms: _74  and  _75
REMARK   34  A    between atoms: _75  and  _76
REMARK   35  A    between atoms: _85  and  _87
REMARK   36  A    between atoms: _87  and  _88
REMARK   37  A    between atoms: _87  and  _90
REMARK   38  A    between atoms: _90  and  _91
REMARK   39  A    between atoms: _96  and  _98
REMARK   40  A    between atoms: _98  and  _99
REMARK   41  A    between atoms: _98  and  _101
REMARK   42  A    between atoms: _101  and  _102
REMARK   43  A    between atoms: _105  and  _107
REMARK   44  A    between atoms: _107  and  _108
REMARK   45  A    between atoms: _107  and  _110
REMARK   46  A    between atoms: _110  and  _111
REMARK   47  A    between atoms: _111  and  _146
REMARK   48  A    between atoms: _112  and  _114
REMARK   49  A    between atoms: _114  and  _115
REMARK   50  A    between atoms: _117  and  _119
REMARK   51  A    between atoms: _119  and  _120
REMARK   52  A    between atoms: _123  and  _125
REMARK   53  A    between atoms: _125  and  _126
REMARK   54  A    between atoms: _129  and  _131
REMARK   55  A    between atoms: _131  and  _132
REMARK   56  A    between atoms: _131  and  _134
REMARK   57  A    between atoms: _134  and  _135
REMARK   58  A    between atoms: _140  and  _142
REMARK   59  A    between atoms: _142  and  _143
REMARK   60  A    between atoms: _142  and  _145
REMARK   61  A    between atoms: _145  and  _146
REMARK   62  A    between atoms: _147  and  _149
REMARK   63  A    between atoms: _149  and  _150
REMARK   64  A    between atoms: _149  and  _152
REMARK   65  A    between atoms: _152  and  _153
REMARK   66  A    between atoms: _159  and  _161
REMARK   67  A    between atoms: _161  and  _162
REMARK   68  A    between atoms: _161  and  _164
REMARK   69  A    between atoms: _164  and  _165
REMARK   70  A    between atoms: _170  and  _171
REMARK   71  A    between atoms: _173  and  _175
REMARK   72  A    between atoms: _175  and  _176
REMARK   73  A    between atoms: _178  and  _180
REMARK   74  A    between atoms: _180  and  _181
REMARK   75  A    between atoms: _180  and  _183
REMARK   76  A    between atoms: _186  and  _188
REMARK   77  A    between atoms: _188  and  _189
REMARK   78  A    between atoms: _192  and  _194
REMARK   79  A    between atoms: _194  and  _195
REMARK   80  A    between atoms: _194  and  _197
REMARK   81  A    between atoms: _197  and  _198
REMARK   82  A    between atoms: _201  and  _203
REMARK   83  A    between atoms: _203  and  _204
REMARK   84  A    between atoms: _203  and  _206
REMARK   85  A    between atoms: _209  and  _211
REMARK   86  A    between atoms: _211  and  _212
REMARK   87  A    between atoms: _211  and  _214
REMARK   88  A    between atoms: _214  and  _215
REMARK   89  A    between atoms: _225  and  _227
REMARK   90  A    between atoms: _227  and  _228
REMARK   91  A    between atoms: _230  and  _232
REMARK   92  A    between atoms: _232  and  _233
REMARK   93  A    between atoms: _232  and  _235
REMARK   94  A    between atoms: _235  and  _236
REMARK   95  A    between atoms: _241  and  _242
REMARK   96  A    between atoms: _244  and  _246
REMARK   97  A    between atoms: _246  and  _247
REMARK   98  A    between atoms: _246  and  _249
REMARK   99  A    between atoms: _249  and  _250
REMARK  100  A    between atoms: _250  and  _251
REMARK  101  A    between atoms: _251  and  _252
REMARK  102  A    between atoms: _252  and  _253
REMARK  103  A    between atoms: _257  and  _259
REMARK  104  A    between atoms: _259  and  _260
REMARK  105  A    between atoms: _259  and  _262
REMARK  106  A    between atoms: _262  and  _263
REMARK  107  A    between atoms: _266  and  _268
REMARK  108  A    between atoms: _268  and  _269
REMARK  109  A    between atoms: _268  and  _271
REMARK  110  A    between atoms: _271  and  _272
REMARK  111  A    between atoms: _275  and  _277
REMARK  112  A    between atoms: _277  and  _278
REMARK  113  A    between atoms: _277  and  _280
REMARK  114  A    between atoms: _280  and  _281
REMARK  115  A    between atoms: _281  and  _282
REMARK  116  A    between atoms: _282  and  _283
REMARK  117  A    between atoms: _283  and  _284
REMARK  118  A    between atoms: _288  and  _290
REMARK  119  A    between atoms: _290  and  _291
REMARK  120  A    between atoms: _290  and  _293
REMARK  121  A    between atoms: _293  and  _294
REMARK  122  A    between atoms: _297  and  _299
REMARK  123  A    between atoms: _299  and  _300
REMARK  124  A    between atoms: _299  and  _302
REMARK  125  A    between atoms: _302  and  _303
REMARK  126  A    between atoms: _308  and  _309
REMARK  127  A    between atoms: _311  and  _313
REMARK  128  A    between atoms: _313  and  _314
REMARK  129  A    between atoms: _313  and  _316
REMARK  130  A    between atoms: _316  and  _317
REMARK  131  A    between atoms: _320  and  _322
REMARK  132  A    between atoms: _322  and  _323
REMARK  133  A    between atoms: _322  and  _325
REMARK  134  A    between atoms: _327  and  _329
REMARK  135  A    between atoms: _329  and  _330
REMARK  136  A    between atoms: _333  and  _335
REMARK  137  A    between atoms: _335  and  _336
REMARK  138  A    between atoms: _335  and  _338
REMARK  139  A    between atoms: _338  and  _339
REMARK  140  A    between atoms: _339  and  _340
REMARK  141  A    between atoms: _340  and  _341
REMARK  142  A    between atoms: _341  and  _342
REMARK  143  A    between atoms: _346  and  _348
REMARK  144  A    between atoms: _348  and  _349
REMARK  145  A    between atoms: _348  and  _351
REMARK  146  A    between atoms: _351  and  _352
REMARK  147  A    between atoms: _355  and  _357
REMARK  148  A    between atoms: _357  and  _358
REMARK  149  A    between atoms: _361  and  _363
REMARK  150  A    between atoms: _363  and  _364
REMARK  151  A    between atoms: _363  and  _366
REMARK  152  A    between atoms: _366  and  _367
REMARK  153  A    between atoms: _367  and  _490
REMARK  154  A    between atoms: _368  and  _370
REMARK  155  A    between atoms: _370  and  _371
REMARK  156  A    between atoms: _370  and  _373
REMARK  157  A    between atoms: _373  and  _374
REMARK  158  A    between atoms: _374  and  _375
REMARK  159  A    between atoms: _375  and  _376
REMARK  160  A    between atoms: _376  and  _377
REMARK  161  A    between atoms: _381  and  _383
REMARK  162  A    between atoms: _383  and  _384
REMARK  163  A    between atoms: _386  and  _388
REMARK  164  A    between atoms: _388  and  _389
REMARK  165  A    between atoms: _388  and  _391
REMARK  166  A    between atoms: _391  and  _392
REMARK  167  A    between atoms: _395  and  _397
REMARK  168  A    between atoms: _397  and  _398
REMARK  169  A    between atoms: _397  and  _400
REMARK  170  A    between atoms: _400  and  _401
REMARK  171  A    between atoms: _403  and  _405
REMARK  172  A    between atoms: _405  and  _406
REMARK  173  A    between atoms: _408  and  _410
REMARK  174  A    between atoms: _410  and  _411
REMARK  175  A    between atoms: _413  and  _415
REMARK  176  A    between atoms: _415  and  _416
REMARK  177  A    between atoms: _415  and  _418
REMARK  178  A    between atoms: _418  and  _419
REMARK  179  A    between atoms: _422  and  _424
REMARK  180  A    between atoms: _424  and  _425
REMARK  181  A    between atoms: _424  and  _427
REMARK  182  A    between atoms: _427  and  _428
REMARK  183  A    between atoms: _431  and  _433
REMARK  184  A    between atoms: _433  and  _434
REMARK  185  A    between atoms: _433  and  _436
REMARK  186  A    between atoms: _436  and  _437
REMARK  187  A    between atoms: _440  and  _442
REMARK  188  A    between atoms: _442  and  _443
REMARK  189  A    between atoms: _442  and  _445
REMARK  190  A    between atoms: _445  and  _446
REMARK  191  A    between atoms: _448  and  _450
REMARK  192  A    between atoms: _450  and  _451
REMARK  193  A    between atoms: _450  and  _453
REMARK  194  A    between atoms: _453  and  _454
REMARK  195  A    between atoms: _464  and  _466
REMARK  196  A    between atoms: _466  and  _467
REMARK  197  A    between atoms: _469  and  _471
REMARK  198  A    between atoms: _471  and  _472
REMARK  199  A    between atoms: _471  and  _474
REMARK  200  A    between atoms: _474  and  _475
REMARK  201  A    between atoms: _475  and  _476
REMARK  202  A    between atoms: _479  and  _481
REMARK  203  A    between atoms: _481  and  _482
REMARK  204  A    between atoms: _484  and  _486
REMARK  205  A    between atoms: _486  and  _487
REMARK  206  A    between atoms: _486  and  _489
REMARK  207  A    between atoms: _489  and  _490
REMARK  208  A    between atoms: _491  and  _493
REMARK  209  A    between atoms: _493  and  _494
REMARK  210  A    between atoms: _497  and  _499
REMARK  211  A    between atoms: _499  and  _500
REMARK  212  A    between atoms: _499  and  _502
REMARK  213  A    between atoms: _502  and  _503
REMARK  214  A    between atoms: _503  and  _504
REMARK  215  A    between atoms: _509  and  _511
REMARK  216  A    between atoms: _511  and  _512
REMARK  217  A    between atoms: _511  and  _514
REMARK  218  A    between atoms: _514  and  _515
REMARK  219  A    between atoms: _515  and  _516
REMARK  220  A    between atoms: _516  and  _517
REMARK  221  A    between atoms: _527  and  _528
REMARK  222  A    between atoms: _533  and  _535
REMARK  223  A    between atoms: _535  and  _536
REMARK  224  A    between atoms: _538  and  _540
REMARK  225  A    between atoms: _540  and  _541
REMARK  226  A    between atoms: _540  and  _543
REMARK  227  A    between atoms: _546  and  _548
REMARK  228  A    between atoms: _548  and  _549
REMARK  229  A    between atoms: _548  and  _551
REMARK  230  A    between atoms: _551  and  _552
REMARK  231  A    between atoms: _557  and  _558
REMARK  232  A    between atoms: _560  and  _562
REMARK  233  A    between atoms: _562  and  _563
REMARK  234  A    between atoms: _562  and  _565
REMARK  235  A    between atoms: _565  and  _566
REMARK                            x       y       z     vdW  Elec       q    Type
REMARK                         _______ _______ _______ _____ _____    ______ ____
ROOT
ATOM      1  CA  LEU A   1      30.547 -13.312  38.105  0.00  0.00    +0.133 C 
ENDROOT
BRANCH   1   2
ATOM      2  N   LEU A   1      30.976 -14.679  38.379  0.00  0.00    -0.239 NA
ATOM      3  H   LEU A   1      30.236 -15.410  38.391  0.00  0.00    +0.142 HD
ENDBRANCH   1   2
BRANCH   1   4
ATOM      4  C   LEU A   1      29.579 -13.127  39.295  0.00  0.00    +0.224 C 
ATOM      5  O   LEU A   1      28.495 -13.724  39.342  0.00  0.00    -0.287 OA
ENDBRANCH   1   4
BRANCH   1   6
ATOM      6  CB  LEU A   1      29.850 -13.125  36.747  0.00  0.00    +0.025 C 
BRANCH   6   7
ATOM      7  CG  LEU A   1      29.190 -11.743  36.553  0.00  0.00    +0.002 C 
ATOM      8  CD2 LEU A   1      30.266 -10.645  36.350  0.00  0.00    +0.000 C 
ATOM      9  CD1 LEU A   1      28.239 -11.779  35.385  0.00  0.00    +0.000 C 
ENDBRANCH   6   7
ENDBRANCH   1   6
TORSDOF 4
REMARK  Name = ../refined-set-2016/5e2p/5e2p_pocket.pdb
REMARK  235 active torsions:
REMARK  status: ('A' for Active; 'I' for Inactive)
REMARK    1  A    between atoms: _1  and  _5
REMARK    2  A    between atoms: _5  and  _6
REMARK    3  A    between atoms: _5  and  _8
REMARK    4  A    between atoms: _8  and  _9
REMARK    5  A    between atoms: _12  and  _14
REMARK    6  A    between atoms: _14  and  _15
REMARK    7  A    between atoms: _14  and  _17
REMARK    8  A    between atoms: _20  and  _22
REMARK    9  A    between atoms: _22  and  _23
REMARK   10  A    between atoms: _22  and  _25
REMARK   11  A    between atoms: _25  and  _26
REMARK   12  A    between atoms: _29  and  _31
REMARK   13  A    between atoms: _31  and  _32
REMARK   14  A    between atoms: _31  and  _34
REMARK   15  A    between atoms: _34  and  _35
REMARK   16  A    between atoms: _38  and  _40
REMARK   17  A    between atoms: _40  and  _41
REMARK   18  A    between atoms: _40  and  _43
REMARK   19  A    between atoms: _43  and  _44
REMARK   20  A    between atoms: _47  and  _49
REMARK   21  A    between atoms: _49  and  _50
REMARK   22  A    between atoms: _49  and  _52
REMARK   23  A    between atoms: _52  and  _53
REMARK   24  A    between atoms: _56  and  _58
REMARK   25  A    between atoms: _58  and  _59
REMARK   26  A    between atoms: _58  and  _61
REMARK   27  A    between atoms: _61  and  _62
REMARK   28  A    between atoms: _62  and  _63
REMARK   29  A    between atoms: _68  and  _70
REMARK   30  A    between atoms: _70  and  _71
REMARK   31  A    between atoms: _70  and  _73
REMARK   32  A    between atoms: _73  and  _74
REMARK   33  A    between atoms: _74  and  _75
REMARK   34  A    between atoms: _75  and  _76
REMARK   35  A    between atoms: _85  and  _87
REMARK   36  A    between atoms: _87  and  _88
REMARK   37  A    between atoms: _87  and  _90
REMARK   38  A    between atoms: _90  and  _91
REMARK   39  A    between atoms: _96  and  _98
REMARK   40  A    between atoms: _98  and  _99
REMARK   41  A    between atoms: _98  and  _101
REMARK   42  A    between atoms: _101  and  _102
REMARK   43  A    between atoms: _105  and  _107
REMARK   44  A    between atoms: _107  and  _108
REMARK   45  A    between atoms: _107  and  _110
REMARK   46  A    between atoms: _110  and  _111
REMARK   47  A    between atoms: _111  and  _146
REMARK   48  A    between atoms: _112  and  _114
REMARK   49  A    between atoms: _114  and  _115
REMARK   50  A    between atoms: _117  and  _119
REMARK   51  A    between atoms: _119  and  _120
REMARK   52  A    between atoms: _123  and  _125
REMARK   53  A    between atoms: _125  and  _126
REMARK   54  A    between atoms: _129  and  _131
REMARK   55  A    between atoms: _131  and  _132
REMARK   56  A    between atoms: _131  and  _134
REMARK   57  A    between atoms: _134  and  _135
REMARK   58  A    between atoms: _140  and  _142
REMARK   59  A    between atoms: _142  and  _143
REMARK   60  A    between atoms: _142  and  _145
REMARK   61  A    between atoms: _145  and  _146
REMARK   62  A    between atoms: _147  and  _149
REMARK   63  A    between atoms: _149  and  _150
REMARK   64  A    between atoms: _149  and  _152
REMARK   65  A    between atoms: _152  and  _153
REMARK   66  A    between atoms: _159  and  _161
REMARK   67  A    between atoms: _161  and  _162
REMARK   68  A    between atoms: _161  and  _164
REMARK   69  A    between atoms: _164  and  _165
REMARK   70  A    between atoms: _170  and  _171
REMARK   71  A    between atoms: _173  and  _175
REMARK   72  A    between atoms: _175  and  _176
REMARK   73  A    between atoms: _178  and  _180
REMARK   74  A    between atoms: _180  and  _181
REMARK   75  A    between atoms: _180  and  _183
REMARK   76  A    between atoms: _186  and  _188
REMARK   77  A    between atoms: _188  and  _189
REMARK   78  A    between atoms: _192  and  _194
REMARK   79  A    between atoms: _194  and  _195
REMARK   80  A    between atoms: _194  and  _197
REMARK   81  A    between atoms: _197  and  _198
REMARK   82  A    between atoms: _201  and  _203
REMARK   83  A    between atoms: _203  and  _204
REMARK   84  A    between atoms: _203  and  _206
REMARK   85  A    between atoms: _209  and  _211
REMARK   86  A    between atoms: _211  and  _212
REMARK   87  A    between atoms: _211  and  _214
REMARK   88  A    between atoms: _214  and  _215
REMARK   89  A    between atoms: _225  and  _227
REMARK   90  A    between atoms: _227  and  _228
REMARK   91  A    between atoms: _230  and  _232
REMARK   92  A    between atoms: _232  and  _233
REMARK   93  A    between atoms: _232  and  _235
REMARK   94  A    between atoms: _235  and  _236
REMARK   95  A    between atoms: _241  and  _242
REMARK   96  A    between atoms: _244  and  _246
REMARK   97  A    between atoms: _246  and  _247
REMARK   98  A    between atoms: _246  and  _249
REMARK   99  A    between atoms: _249  and  _250
REMARK  100  A    between atoms: _250  and  _251
REMARK  101  A    between atoms: _251  and  _252
REMARK  102  A    between atoms: _252  and  _253
REMARK  103  A    between atoms: _257  and  _259
REMARK  104  A    between atoms: _259  and  _260
REMARK  105  A    between atoms: _259  and  _262
REMARK  106  A    between atoms: _262  and  _263
REMARK  107  A    between atoms: _266  and  _268
REMARK  108  A    between atoms: _268  and  _269
REMARK  109  A    between atoms: _268  and  _271
REMARK  110  A    between atoms: _271  and  _272
REMARK  111  A    between atoms: _275  and  _277
REMARK  112  A    between atoms: _277  and  _278
REMARK  113  A    between atoms: _277  and  _280
REMARK  114  A    between atoms: _280  and  _281
REMARK  115  A    between atoms: _281  and  _282
REMARK  116  A    between atoms: _282  and  _283
REMARK  117  A    between atoms: _283  and  _284
REMARK  118  A    between atoms: _288  and  _290
REMARK  119  A    between atoms: _290  and  _291
REMARK  120  A    between atoms: _290  and  _293
REMARK  121  A    between atoms: _293  and  _294
REMARK  122  A    between atoms: _297  and  _299
REMARK  123  A    between atoms: _299  and  _300
REMARK  124  A    between atoms: _299  and  _302
REMARK  125  A    between atoms: _302  and  _303
REMARK  126  A    between atoms: _308  and  _309
REMARK  127  A    between atoms: _311  and  _313
REMARK  128  A    between atoms: _313  and  _314
REMARK  129  A    between atoms: _313  and  _316
REMARK  130  A    between atoms: _316  and  _317
REMARK  131  A    between atoms: _320  and  _322
REMARK  132  A    between atoms: _322  and  _323
REMARK  133  A    between atoms: _322  and  _325
REMARK  134  A    between atoms: _327  and  _329
REMARK  135  A    between atoms: _329  and  _330
REMARK  136  A    between atoms: _333  and  _335
REMARK  137  A    between atoms: _335  and  _336
REMARK  138  A    between atoms: _335  and  _338
REMARK  139  A    between atoms: _338  and  _339
REMARK  140  A    between atoms: _339  and  _340
REMARK  141  A    between atoms: _340  and  _341
REMARK  142  A    between atoms: _341  and  _342
REMARK  143  A    between atoms: _346  and  _348
REMARK  144  A    between atoms: _348  and  _349
REMARK  145  A    between atoms: _348  and  _351
REMARK  146  A    between atoms: _351  and  _352
REMARK  147  A    between atoms: _355  and  _357
REMARK  148  A    between atoms: _357  and  _358
REMARK  149  A    between atoms: _361  and  _363
REMARK  150  A    between atoms: _363  and  _364
REMARK  151  A    between atoms: _363  and  _366
REMARK  152  A    between atoms: _366  and  _367
REMARK  153  A    between atoms: _367  and  _490
REMARK  154  A    between atoms: _368  and  _370
REMARK  155  A    between atoms: _370  and  _371
REMARK  156  A    between atoms: _370  and  _373
REMARK  157  A    between atoms: _373  and  _374
REMARK  158  A    between atoms: _374  and  _375
REMARK  159  A    between atoms: _375  and  _376
REMARK  160  A    between atoms: _376  and  _377
REMARK  161  A    between atoms: _381  and  _383
REMARK  162  A    between atoms: _383  and  _384
REMARK  163  A    between atoms: _386  and  _388
REMARK  164  A    between atoms: _388  and  _389
REMARK  165  A    between atoms: _388  and  _391
REMARK  166  A    between atoms: _391  and  _392
REMARK  167  A    between atoms: _395  and  _397
REMARK  168  A    between atoms: _397  and  _398
REMARK  169  A    between atoms: _397  and  _400
REMARK  170  A    between atoms: _400  and  _401
REMARK  171  A    between atoms: _403  and  _405
REMARK  172  A    between atoms: _405  and  _406
REMARK  173  A    between atoms: _408  and  _410
REMARK  174  A    between atoms: _410  and  _411
REMARK  175  A    between atoms: _413  and  _415
REMARK  176  A    between atoms: _415  and  _416
REMARK  177  A    between atoms: _415  and  _418
REMARK  178  A    between atoms: _418  and  _419
REMARK  179  A    between atoms: _422  and  _424
REMARK  180  A    between atoms: _424  and  _425
REMARK  181  A    between atoms: _424  and  _427
REMARK  182  A    between atoms: _427  and  _428
REMARK  183  A    between atoms: _431  and  _433
REMARK  184  A    between atoms: _433  and  _434
REMARK  185  A    between atoms: _433  and  _436
REMARK  186  A    between atoms: _436  and  _437
REMARK  187  A    between atoms: _440  and  _442
REMARK  188  A    between atoms: _442  and  _443
REMARK  189  A    between atoms: _442  and  _445
REMARK  190  A    between atoms: _445  and  _446
REMARK  191  A    between atoms: _448  and  _450
REMARK  192  A    between atoms: _450  and  _451
REMARK  193  A    between atoms: _450  and  _453
REMARK  194  A    between atoms: _453  and  _454
REMARK  195  A    between atoms: _464  and  _466
REMARK  196  A    between atoms: _466  and  _467
REMARK  197  A    between atoms: _469  and  _471
REMARK  198  A    between atoms: _471  and  _472
REMARK  199  A    between atoms: _471  and  _474
REMARK  200  A    between atoms: _474  and  _475
REMARK  201  A    between atoms: _475  and  _476
REMARK  202  A    between atoms: _479  and  _481
REMARK  203  A    between atoms: _481  and  _482
REMARK  204  A    between atoms: _484  and  _486
REMARK  205  A    between atoms: _486  and  _487
REMARK  206  A    between atoms: _486  and  _489
REMARK  207  A    between atoms: _489  and  _490
REMARK  208  A    between atoms: _491  and  _493
REMARK  209  A    between atoms: _493  and  _494
REMARK  210  A    between atoms: _497  and  _499
REMARK  211  A    between atoms: _499  and  _500
REMARK  212  A    between atoms: _499  and  _502
REMARK  213  A    between atoms: _502  and  _503
REMARK  214  A    between atoms: _503  and  _504
REMARK  215  A    between atoms: _509  and  _511
REMARK  216  A    between atoms: _511  and  _512
REMARK  217  A    between atoms: _511  and  _514
REMARK  218  A    between atoms: _514  and  _515
REMARK  219  A    between atoms: _515  and  _516
REMARK  220  A    between atoms: _516  and  _517
REMARK  221  A    between atoms: _527  and  _528
REMARK  222  A    between atoms: _533  and  _535
REMARK  223  A    between atoms: _535  and  _536
REMARK  224  A    between atoms: _538  and  _540
REMARK  225  A    between atoms: _540  and  _541
REMARK  226  A    between atoms: _540  and  _543
REMARK  227  A    between atoms: _546  and  _548
REMARK  228  A    between atoms: _548  and  _549
REMARK  229  A    between atoms: _548  and  _551
REMARK  230  A    between atoms: _551  and  _552
REMARK  231  A    between atoms: _557  and  _558
REMARK  232  A    between atoms: _560  and  _562
REMARK  233  A    between atoms: _562  and  _563
REMARK  234  A    between atoms: _562  and  _565
REMARK  235  A    between atoms: _565  and  _566
REMARK                            x       y       z     vdW  Elec       q    Type
REMARK                         _______ _______ _______ _____ _____    ______ ____
ROOT
ATOM      1  C   GLY A   3      30.867 -12.241  28.190  0.00  0.00    +0.243 C 
ATOM      2  O   GLY A   3      29.871 -11.617  28.519  0.00  0.00    -0.273 OA
ATOM      3  N   VAL A   4      30.832 -13.548  27.854  0.00  0.00    -0.297 N 
ATOM      4  H   VAL A   4      31.721 -13.993  27.548  0.00  0.00    +0.150 HD
ENDROOT
BRANCH   3   5
ATOM      5  CA  VAL A   4      29.627 -14.383  27.891  0.00  0.00    +0.149 C 
BRANCH   5   6
ATOM      6  C   VAL A   4      29.805 -15.375  28.991  0.00  0.00    +0.241 C 
ATOM      7  N   TYR A   5      28.804 -15.399  29.889  0.00  0.00    -0.297 N 
ATOM      8  H   TYR A   5      27.983 -14.794  29.684  0.00  0.00    +0.150 HD
ATOM      9  O   VAL A   4      30.845 -16.042  29.076  0.00  0.00    -0.273 OA
BRANCH   7  10
ATOM     10  CA  TYR A   5      28.744 -16.174  31.110  0.00  0.00    +0.153 C 
BRANCH  10  11
ATOM     11  C   TYR A   5      27.556 -17.112  31.116  0.00  0.00    +0.241 C 
ATOM     12  N   THR A   6      27.683 -18.251  31.831  0.00  0.00    -0.296 N 
ATOM     13  H   THR A   6      28.602 -18.496  32.253  0.00  0.00    +0.150 HD
ATOM     14  O   TYR A   5      26.531 -16.816  30.502  0.00  0.00    -0.273 OA
BRANCH  12  15
ATOM     15  CA  THR A   6      26.541 -19.140  32.016  0.00  0.00    +0.164 C 
BRANCH  15  16
ATOM     16  CB  THR A   6      27.001 -20.496  32.613  0.00  0.00    +0.136 C 
ATOM     17  CG2 THR A   6      25.866 -21.484  32.779  0.00  0.00    +0.034 C 
BRANCH  16  18
ATOM     18  OG1 THR A   6      27.980 -21.083  31.744  0.00  0.00    -0.382 OA
ATOM     19  HG1 THR A   6      28.277 -21.949  32.121  0.00  0.00    +0.210 HD
ENDBRANCH  16  18
ENDBRANCH  15  16
BRANCH  15  20
ATOM     20  C   THR A   6      25.604 -18.348  32.955  0.00  0.00    +0.229 C 
ATOM     21  O   THR A   6      26.063 -17.858  33.994  0.00  0.00    -0.286 OA
ENDBRANCH  15  20
ENDBRANCH  12  15
ENDBRANCH  10  11
BRANCH  10  22
ATOM     22  CB  TYR A   5      28.617 -15.212  32.319  0.00  0.00    +0.055 C 
BRANCH  22  23
ATOM     23  CG  TYR A   5      29.783 -14.245  32.460  0.00  0.00    -0.020 A 
ATOM     24  CD2 TYR A   5      30.794 -14.471  33.395  0.00  0.00    -0.001 A 
ATOM     25  CE2 TYR A   5      31.896 -13.618  33.493  0.00  0.00    +0.036 A 
ATOM     26  CZ  TYR A   5      31.976 -12.503  32.668  0.00  0.00    +0.134 A 
ATOM     27  CE1 TYR A   5      30.960 -12.236  31.765  0.00  0.00    +0.036 A 
ATOM     28  CD1 TYR A   5      29.869 -13.101  31.668  0.00  0.00    -0.001 A 
BRANCH  26  29
ATOM     29  OH  TYR A   5      33.024 -11.617  32.793  0.00  0.00    -0.506 OA
ATOM     30  HH  TYR A   5      32.920 -10.889  32.130  0.00  0.00    +0.292 HD
ENDBRANCH  26  29
ENDBRANCH  22  23
ENDBRANCH  10  22
ENDBRANCH   7  10
ENDBRANCH   5   6
BRANCH   5  31
ATOM     31  CB  VAL A   4      29.258 -15.031  26.535  0.00  0.00    +0.027 C 
ATOM     32  CG2 VAL A   4      27.825 -15.566  26.562  0.00  0.00    +0.002 C 
ATOM     33  CG1 VAL A   4      29.432 -14.030  25.375  0.00  0.00    +0.002 C 
ENDBRANCH   5  31
ENDBRANCH   3   5
BRANCH   1  34
ATOM     34  CA  GLY A   3      32.188 -11.512  28.081  0.00  0.00    +0.176 C 
BRANCH  34  36
ATOM     35  C   PRO A   2      31.463  -9.870  26.419  0.00  0.00    +0.241 C 
ATOM     36  N   GLY A   3      31.875 -10.160  27.647  0.00  0.00    -0.295 N 
ATOM     37  H   GLY A   3      31.979  -9.384  28.331  0.00  0.00    +0.150 HD
ATOM     38  O   PRO A   2      31.436 -10.679  25.519  0.00  0.00    -0.273 OA
BRANCH  35  42
ATOM     39  C   ARG A   1      32.456  -8.104  24.147  0.00  0.00    +0.241 C 
ATOM     40  O   ARG A   1      33.469  -8.250  24.832  0.00  0.00    -0.273 OA
ATOM     41  N   PRO A   2      31.214  -8.098  24.700  0.00  0.00    -0.272 N 
ATOM     42  CA  PRO A   2      31.065  -8.425  26.132  0.00  0.00    +0.152 C 
ATOM     43  CB  PRO A   2      29.569  -8.217  26.411  0.00  0.00    +0.031 C 
ATOM     44  CG  PRO A   2      28.935  -7.809  25.133  0.00  0.00    +0.024 C 
ATOM     45  CD  PRO A   2      29.900  -7.997  24.020  0.00  0.00    +0.094 C 
BRANCH  39  46
ATOM     46  CA  ARG A   1      32.595  -7.767  22.649  0.00  0.00    +0.145 C 
BRANCH  46  47
ATOM     47  N   ARG A   1      32.526  -6.304  22.528  0.00  0.00    -0.238 NA
ATOM     48  H   ARG A   1      33.091  -5.731  23.186  0.00  0.00    +0.142 HD
ENDBRANCH  46  47
BRANCH  46  49
ATOM     49  CB  ARG A   1      33.886  -8.338  22.042  0.00  0.00    +0.030 C 
BRANCH  49  50
ATOM     50  CG  ARG A   1      34.036  -8.172  20.540  0.00  0.00    +0.045 C 
BRANCH  50  51
ATOM     51  CD  ARG A   1      32.989  -8.953  19.747  0.00  0.00    +0.174 C 
BRANCH  51  52
ATOM     52  NE  ARG A   1      33.419  -9.101  18.352  0.00  0.00    -0.265 N 
ATOM     53  HE  ARG A   1      34.180  -8.481  18.008  0.00  0.00    +0.259 HD
ATOM     54  CZ  ARG A   1      32.900  -9.974  17.504  0.00  0.00    +0.342 C 
ATOM     55  NH2 ARG A   1      31.917 -10.776  17.887  0.00  0.00    -0.292 N 
ATOM     56 HH21 ARG A   1      31.550 -10.721  18.858  0.00  0.00    +0.255 HD
ATOM     57 HH22 ARG A   1      31.513 -11.460  17.216  0.00  0.00    +0.255 HD
ATOM     58  NH1 ARG A   1      33.364 -10.057  16.264  0.00  0.00    -0.292 N 
ATOM     59 HH11 ARG A   1      34.138  -9.435  15.956  0.00  0.00    +0.255 HD
ATOM     60 HH12 ARG A   1      32.954 -10.744  15.600  0.00  0.00    +0.255 HD
ENDBRANCH  51  52
ENDBRANCH  50  51
ENDBRANCH  49  50
ENDBRANCH  46  49
ENDBRANCH  39  46
ENDBRANCH  35  42
ENDBRANCH  34  36
ENDBRANCH   1  34
TORSDOF 21
REMARK  Name = ../refined-set-2016/5e2p/5e2p_pocket.pdb
REMARK  235 active torsions:
REMARK  status: ('A' for Active; 'I' for Inactive)
REMARK    1  A    between atoms: _1  and  _5
REMARK    2  A    between atoms: _5  and  _6
REMARK    3  A    between atoms: _5  and  _8
REMARK    4  A    between atoms: _8  and  _9
REMARK    5  A    between atoms: _12  and  _14
REMARK    6  A    between atoms: _14  and  _15
REMARK    7  A    between atoms: _14  and  _17
REMARK    8  A    between atoms: _20  and  _22
REMARK    9  A    between atoms: _22  and  _23
REMARK   10  A    between atoms: _22  and  _25
REMARK   11  A    between atoms: _25  and  _26
REMARK   12  A    between atoms: _29  and  _31
REMARK   13  A    between atoms: _31  and  _32
REMARK   14  A    between atoms: _31  and  _34
REMARK   15  A    between atoms: _34  and  _35
REMARK   16  A    between atoms: _38  and  _40
REMARK   17  A    between atoms: _40  and  _41
REMARK   18  A    between atoms: _40  and  _43
REMARK   19  A    between atoms: _43  and  _44
REMARK   20  A    between atoms: _47  and  _49
REMARK   21  A    between atoms: _49  and  _50
REMARK   22  A    between atoms: _49  and  _52
REMARK   23  A    between atoms: _52  and  _53
REMARK   24  A    between atoms: _56  and  _58
REMARK   25  A    between atoms: _58  and  _59
REMARK   26  A    between atoms: _58  and  _61
REMARK   27  A    between atoms: _61  and  _62
REMARK   28  A    between atoms: _62  and  _63
REMARK   29  A    between atoms: _68  and  _70
REMARK   30  A    between atoms: _70  and  _71
REMARK   31  A    between atoms: _70  and  _73
REMARK   32  A    between atoms: _73  and  _74
REMARK   33  A    between atoms: _74  and  _75
REMARK   34  A    between atoms: _75  and  _76
REMARK   35  A    between atoms: _85  and  _87
REMARK   36  A    between atoms: _87  and  _88
REMARK   37  A    between atoms: _87  and  _90
REMARK   38  A    between atoms: _90  and  _91
REMARK   39  A    between atoms: _96  and  _98
REMARK   40  A    between atoms: _98  and  _99
REMARK   41  A    between atoms: _98  and  _101
REMARK   42  A    between atoms: _101  and  _102
REMARK   43  A    between atoms: _105  and  _107
REMARK   44  A    between atoms: _107  and  _108
REMARK   45  A    between atoms: _107  and  _110
REMARK   46  A    between atoms: _110  and  _111
REMARK   47  A    between atoms: _111  and  _146
REMARK   48  A    between atoms: _112  and  _114
REMARK   49  A    between atoms: _114  and  _115
REMARK   50  A    between atoms: _117  and  _119
REMARK   51  A    between atoms: _119  and  _120
REMARK   52  A    between atoms: _123  and  _125
REMARK   53  A    between atoms: _125  and  _126
REMARK   54  A    between atoms: _129  and  _131
REMARK   55  A    between atoms: _131  and  _132
REMARK   56  A    between atoms: _131  and  _134
REMARK   57  A    between atoms: _134  and  _135
REMARK   58  A    between atoms: _140  and  _142
REMARK   59  A    between atoms: _142  and  _143
REMARK   60  A    between atoms: _142  and  _145
REMARK   61  A    between atoms: _145  and  _146
REMARK   62  A    between atoms: _147  and  _149
REMARK   63  A    between atoms: _149  and  _150
REMARK   64  A    between atoms: _149  and  _152
REMARK   65  A    between atoms: _152  and  _153
REMARK   66  A    between atoms: _159  and  _161
REMARK   67  A    between atoms: _161  and  _162
REMARK   68  A    between atoms: _161  and  _164
REMARK   69  A    between atoms: _164  and  _165
REMARK   70  A    between atoms: _170  and  _171
REMARK   71  A    between atoms: _173  and  _175
REMARK   72  A    between atoms: _175  and  _176
REMARK   73  A    between atoms: _178  and  _180
REMARK   74  A    between atoms: _180  and  _181
REMARK   75  A    between atoms: _180  and  _183
REMARK   76  A    between atoms: _186  and  _188
REMARK   77  A    between atoms: _188  and  _189
REMARK   78  A    between atoms: _192  and  _194
REMARK   79  A    between atoms: _194  and  _195
REMARK   80  A    between atoms: _194  and  _197
REMARK   81  A    between atoms: _197  and  _198
REMARK   82  A    between atoms: _201  and  _203
REMARK   83  A    between atoms: _203  and  _204
REMARK   84  A    between atoms: _203  and  _206
REMARK   85  A    between atoms: _209  and  _211
REMARK   86  A    between atoms: _211  and  _212
REMARK   87  A    between atoms: _211  and  _214
REMARK   88  A    between atoms: _214  and  _215
REMARK   89  A    between atoms: _225  and  _227
REMARK   90  A    between atoms: _227  and  _228
REMARK   91  A    between atoms: _230  and  _232
REMARK   92  A    between atoms: _232  and  _233
REMARK   93  A    between atoms: _232  and  _235
REMARK   94  A    between atoms: _235  and  _236
REMARK   95  A    between atoms: _241  and  _242
REMARK   96  A    between atoms: _244  and  _246
REMARK   97  A    between atoms: _246  and  _247
REMARK   98  A    between atoms: _246  and  _249
REMARK   99  A    between atoms: _249  and  _250
REMARK  100  A    between atoms: _250  and  _251
REMARK  101  A    between atoms: _251  and  _252
REMARK  102  A    between atoms: _252  and  _253
REMARK  103  A    between atoms: _257  and  _259
REMARK  104  A    between atoms: _259  and  _260
REMARK  105  A    between atoms: _259  and  _262
REMARK  106  A    between atoms: _262  and  _263
REMARK  107  A    between atoms: _266  and  _268
REMARK  108  A    between atoms: _268  and  _269
REMARK  109  A    between atoms: _268  and  _271
REMARK  110  A    between atoms: _271  and  _272
REMARK  111  A    between atoms: _275  and  _277
REMARK  112  A    between atoms: _277  and  _278
REMARK  113  A    between atoms: _277  and  _280
REMARK  114  A    between atoms: _280  and  _281
REMARK  115  A    between atoms: _281  and  _282
REMARK  116  A    between atoms: _282  and  _283
REMARK  117  A    between atoms: _283  and  _284
REMARK  118  A    between atoms: _288  and  _290
REMARK  119  A    between atoms: _290  and  _291
REMARK  120  A    between atoms: _290  and  _293
REMARK  121  A    between atoms: _293  and  _294
REMARK  122  A    between atoms: _297  and  _299
REMARK  123  A    between atoms: _299  and  _300
REMARK  124  A    between atoms: _299  and  _302
REMARK  125  A    between atoms: _302  and  _303
REMARK  126  A    between atoms: _308  and  _309
REMARK  127  A    between atoms: _311  and  _313
REMARK  128  A    between atoms: _313  and  _314
REMARK  129  A    between atoms: _313  and  _316
REMARK  130  A    between atoms: _316  and  _317
REMARK  131  A    between atoms: _320  and  _322
REMARK  132  A    between atoms: _322  and  _323
REMARK  133  A    between atoms: _322  and  _325
REMARK  134  A    between atoms: _327  and  _329
REMARK  135  A    between atoms: _329  and  _330
REMARK  136  A    between atoms: _333  and  _335
REMARK  137  A    between atoms: _335  and  _336
REMARK  138  A    between atoms: _335  and  _338
REMARK  139  A    between atoms: _338  and  _339
REMARK  140  A    between atoms: _339  and  _340
REMARK  141  A    between atoms: _340  and  _341
REMARK  142  A    between atoms: _341  and  _342
REMARK  143  A    between atoms: _346  and  _348
REMARK  144  A    between atoms: _348  and  _349
REMARK  145  A    between atoms: _348  and  _351
REMARK  146  A    between atoms: _351  and  _352
REMARK  147  A    between atoms: _355  and  _357
REMARK  148  A    between atoms: _357  and  _358
REMARK  149  A    between atoms: _361  and  _363
REMARK  150  A    between atoms: _363  and  _364
REMARK  151  A    between atoms: _363  and  _366
REMARK  152  A    between atoms: _366  and  _367
REMARK  153  A    between atoms: _367  and  _490
REMARK  154  A    between atoms: _368  and  _370
REMARK  155  A    between atoms: _370  and  _371
REMARK  156  A    between atoms: _370  and  _373
REMARK  157  A    between atoms: _373  and  _374
REMARK  158  A    between atoms: _374  and  _375
REMARK  159  A    between atoms: _375  and  _376
REMARK  160  A    between atoms: _376  and  _377
REMARK  161  A    between atoms: _381  and  _383
REMARK  162  A    between atoms: _383  and  _384
REMARK  163  A    between atoms: _386  and  _388
REMARK  164  A    between atoms: _388  and  _389
REMARK  165  A    between atoms: _388  and  _391
REMARK  166  A    between atoms: _391  and  _392
REMARK  167  A    between atoms: _395  and  _397
REMARK  168  A    between atoms: _397  and  _398
REMARK  169  A    between atoms: _397  and  _400
REMARK  170  A    between atoms: _400  and  _401
REMARK  171  A    between atoms: _403  and  _405
REMARK  172  A    between atoms: _405  and  _406
REMARK  173  A    between atoms: _408  and  _410
REMARK  174  A    between atoms: _410  and  _411
REMARK  175  A    between atoms: _413  and  _415
REMARK  176  A    between atoms: _415  and  _416
REMARK  177  A    between atoms: _415  and  _418
REMARK  178  A    between atoms: _418  and  _419
REMARK  179  A    between atoms: _422  and  _424
REMARK  180  A    between atoms: _424  and  _425
REMARK  181  A    between atoms: _424  and  _427
REMARK  182  A    between atoms: _427  and  _428
REMARK  183  A    between atoms: _431  and  _433
REMARK  184  A    between atoms: _433  and  _434
REMARK  185  A    between atoms: _433  and  _436
REMARK  186  A    between atoms: _436  and  _437
REMARK  187  A    between atoms: _440  and  _442
REMARK  188  A    between atoms: _442  and  _443
REMARK  189  A    between atoms: _442  and  _445
REMARK  190  A    between atoms: _445  and  _446
REMARK  191  A    between atoms: _448  and  _450
REMARK  192  A    between atoms: _450  and  _451
REMARK  193  A    between atoms: _450  and  _453
REMARK  194  A    between atoms: _453  and  _454
REMARK  195  A    between atoms: _464  and  _466
REMARK  196  A    between atoms: _466  and  _467
REMARK  197  A    between atoms: _469  and  _471
REMARK  198  A    between atoms: _471  and  _472
REMARK  199  A    between atoms: _471  and  _474
REMARK  200  A    between atoms: _474  and  _475
REMARK  201  A    between atoms: _475  and  _476
REMARK  202  A    between atoms: _479  and  _481
REMARK  203  A    between atoms: _481  and  _482
REMARK  204  A    between atoms: _484  and  _486
REMARK  205  A    between atoms: _486  and  _487
REMARK  206  A    between atoms: _486  and  _489
REMARK  207  A    between atoms: _489  and  _490
REMARK  208  A    between atoms: _491  and  _493
REMARK  209  A    between atoms: _493  and  _494
REMARK  210  A    between atoms: _497  and  _499
REMARK  211  A    between atoms: _499  and  _500
REMARK  212  A    between atoms: _499  and  _502
REMARK  213  A    between atoms: _502  and  _503
REMARK  214  A    between atoms: _503  and  _504
REMARK  215  A    between atoms: _509  and  _511
REMARK  216  A    between atoms: _511  and  _512
REMARK  217  A    between atoms: _511  and  _514
REMARK  218  A    between atoms: _514  and  _515
REMARK  219  A    between atoms: _515  and  _516
REMARK  220  A    between atoms: _516  and  _517
REMARK  221  A    between atoms: _527  and  _528
REMARK  222  A    between atoms: _533  and  _535
REMARK  223  A    between atoms: _535  and  _536
REMARK  224  A    between atoms: _538  and  _540
REMARK  225  A    between atoms: _540  and  _541
REMARK  226  A    between atoms: _540  and  _543
REMARK  227  A    between atoms: _546  and  _548
REMARK  228  A    between atoms: _548  and  _549
REMARK  229  A    between atoms: _548  and  _551
REMARK  230  A    between atoms: _551  and  _552
REMARK  231  A    between atoms: _557  and  _558
REMARK  232  A    between atoms: _560  and  _562
REMARK  233  A    between atoms: _562  and  _563
REMARK  234  A    between atoms: _562  and  _565
REMARK  235  A    between atoms: _565  and  _566
REMARK                            x       y       z     vdW  Elec       q    Type
REMARK                         _______ _______ _______ _____ _____    ______ ____
ROOT
ATOM      1  O   HOH     1      33.221  -9.451  31.056  0.00  0.00    +0.000 OA
ENDROOT
TORSDOF 0
REMARK  Name = ../refined-set-2016/5e2p/5e2p_pocket.pdb
REMARK  235 active torsions:
REMARK  status: ('A' for Active; 'I' for Inactive)
REMARK    1  A    between atoms: _1  and  _5
REMARK    2  A    between atoms: _5  and  _6
REMARK    3  A    between atoms: _5  and  _8
REMARK    4  A    between atoms: _8  and  _9
REMARK    5  A    between atoms: _12  and  _14
REMARK    6  A    between atoms: _14  and  _15
REMARK    7  A    between atoms: _14  and  _17
REMARK    8  A    between atoms: _20  and  _22
REMARK    9  A    between atoms: _22  and  _23
REMARK   10  A    between atoms: _22  and  _25
REMARK   11  A    between atoms: _25  and  _26
REMARK   12  A    between atoms: _29  and  _31
REMARK   13  A    between atoms: _31  and  _32
REMARK   14  A    between atoms: _31  and  _34
REMARK   15  A    between atoms: _34  and  _35
REMARK   16  A    between atoms: _38  and  _40
REMARK   17  A    between atoms: _40  and  _41
REMARK   18  A    between atoms: _40  and  _43
REMARK   19  A    between atoms: _43  and  _44
REMARK   20  A    between atoms: _47  and  _49
REMARK   21  A    between atoms: _49  and  _50
REMARK   22  A    between atoms: _49  and  _52
REMARK   23  A    between atoms: _52  and  _53
REMARK   24  A    between atoms: _56  and  _58
REMARK   25  A    between atoms: _58  and  _59
REMARK   26  A    between atoms: _58  and  _61
REMARK   27  A    between atoms: _61  and  _62
REMARK   28  A    between atoms: _62  and  _63
REMARK   29  A    between atoms: _68  and  _70
REMARK   30  A    between atoms: _70  and  _71
REMARK   31  A    between atoms: _70  and  _73
REMARK   32  A    between atoms: _73  and  _74
REMARK   33  A    between atoms: _74  and  _75
REMARK   34  A    between atoms: _75  and  _76
REMARK   35  A    between atoms: _85  and  _87
REMARK   36  A    between atoms: _87  and  _88
REMARK   37  A    between atoms: _87  and  _90
REMARK   38  A    between atoms: _90  and  _91
REMARK   39  A    between atoms: _96  and  _98
REMARK   40  A    between atoms: _98  and  _99
REMARK   41  A    between atoms: _98  and  _101
REMARK   42  A    between atoms: _101  and  _102
REMARK   43  A    between atoms: _105  and  _107
REMARK   44  A    between atoms: _107  and  _108
REMARK   45  A    between atoms: _107  and  _110
REMARK   46  A    between atoms: _110  and  _111
REMARK   47  A    between atoms: _111  and  _146
REMARK   48  A    between atoms: _112  and  _114
REMARK   49  A    between atoms: _114  and  _115
REMARK   50  A    between atoms: _117  and  _119
REMARK   51  A    between atoms: _119  and  _120
REMARK   52  A    between atoms: _123  and  _125
REMARK   53  A    between atoms: _125  and  _126
REMARK   54  A    between atoms: _129  and  _131
REMARK   55  A    between atoms: _131  and  _132
REMARK   56  A    between atoms: _131  and  _134
REMARK   57  A    between atoms: _134  and  _135
REMARK   58  A    between atoms: _140  and  _142
REMARK   59  A    between atoms: _142  and  _143
REMARK   60  A    between atoms: _142  and  _145
REMARK   61  A    between atoms: _145  and  _146
REMARK   62  A    between atoms: _147  and  _149
REMARK   63  A    between atoms: _149  and  _150
REMARK   64  A    between atoms: _149  and  _152
REMARK   65  A    between atoms: _152  and  _153
REMARK   66  A    between atoms: _159  and  _161
REMARK   67  A    between atoms: _161  and  _162
REMARK   68  A    between atoms: _161  and  _164
REMARK   69  A    between atoms: _164  and  _165
REMARK   70  A    between atoms: _170  and  _171
REMARK   71  A    between atoms: _173  and  _175
REMARK   72  A    between atoms: _175  and  _176
REMARK   73  A    between atoms: _178  and  _180
REMARK   74  A    between atoms: _180  and  _181
REMARK   75  A    between atoms: _180  and  _183
REMARK   76  A    between atoms: _186  and  _188
REMARK   77  A    between atoms: _188  and  _189
REMARK   78  A    between atoms: _192  and  _194
REMARK   79  A    between atoms: _194  and  _195
REMARK   80  A    between atoms: _194  and  _197
REMARK   81  A    between atoms: _197  and  _198
REMARK   82  A    between atoms: _201  and  _203
REMARK   83  A    between atoms: _203  and  _204
REMARK   84  A    between atoms: _203  and  _206
REMARK   85  A    between atoms: _209  and  _211
REMARK   86  A    between atoms: _211  and  _212
REMARK   87  A    between atoms: _211  and  _214
REMARK   88  A    between atoms: _214  and  _215
REMARK   89  A    between atoms: _225  and  _227
REMARK   90  A    between atoms: _227  and  _228
REMARK   91  A    between atoms: _230  and  _232
REMARK   92  A    between atoms: _232  and  _233
REMARK   93  A    between atoms: _232  and  _235
REMARK   94  A    between atoms: _235  and  _236
REMARK   95  A    between atoms: _241  and  _242
REMARK   96  A    between atoms: _244  and  _246
REMARK   97  A    between atoms: _246  and  _247
REMARK   98  A    between atoms: _246  and  _249
REMARK   99  A    between atoms: _249  and  _250
REMARK  100  A    between atoms: _250  and  _251
REMARK  101  A    between atoms: _251  and  _252
REMARK  102  A    between atoms: _252  and  _253
REMARK  103  A    between atoms: _257  and  _259
REMARK  104  A    between atoms: _259  and  _260
REMARK  105  A    between atoms: _259  and  _262
REMARK  106  A    between atoms: _262  and  _263
REMARK  107  A    between atoms: _266  and  _268
REMARK  108  A    between atoms: _268  and  _269
REMARK  109  A    between atoms: _268  and  _271
REMARK  110  A    between atoms: _271  and  _272
REMARK  111  A    between atoms: _275  and  _277
REMARK  112  A    between atoms: _277  and  _278
REMARK  113  A    between atoms: _277  and  _280
REMARK  114  A    between atoms: _280  and  _281
REMARK  115  A    between atoms: _281  and  _282
REMARK  116  A    between atoms: _282  and  _283
REMARK  117  A    between atoms: _283  and  _284
REMARK  118  A    between atoms: _288  and  _290
REMARK  119  A    between atoms: _290  and  _291
REMARK  120  A    between atoms: _290  and  _293
REMARK  121  A    between atoms: _293  and  _294
REMARK  122  A    between atoms: _297  and  _299
REMARK  123  A    between atoms: _299  and  _300
REMARK  124  A    between atoms: _299  and  _302
REMARK  125  A    between atoms: _302  and  _303
REMARK  126  A    between atoms: _308  and  _309
REMARK  127  A    between atoms: _311  and  _313
REMARK  128  A    between atoms: _313  and  _314
REMARK  129  A    between atoms: _313  and  _316
REMARK  130  A    between atoms: _316  and  _317
REMARK  131  A    between atoms: _320  and  _322
REMARK  132  A    between atoms: _322  and  _323
REMARK  133  A    between atoms: _322  and  _325
REMARK  134  A    between atoms: _327  and  _329
REMARK  135  A    between atoms: _329  and  _330
REMARK  136  A    between atoms: _333  and  _335
REMARK  137  A    between atoms: _335  and  _336
REMARK  138  A    between atoms: _335  and  _338
REMARK  139  A    between atoms: _338  and  _339
REMARK  140  A    between atoms: _339  and  _340
REMARK  141  A    between atoms: _340  and  _341
REMARK  142  A    between atoms: _341  and  _342
REMARK  143  A    between atoms: _346  and  _348
REMARK  144  A    between atoms: _348  and  _349
REMARK  145  A    between atoms: _348  and  _351
REMARK  146  A    between atoms: _351  and  _352
REMARK  147  A    between atoms: _355  and  _357
REMARK  148  A    between atoms: _357  and  _358
REMARK  149  A    between atoms: _361  and  _363
REMARK  150  A    between atoms: _363  and  _364
REMARK  151  A    between atoms: _363  and  _366
REMARK  152  A    between atoms: _366  and  _367
REMARK  153  A    between atoms: _367  and  _490
REMARK  154  A    between atoms: _368  and  _370
REMARK  155  A    between atoms: _370  and  _371
REMARK  156  A    between atoms: _370  and  _373
REMARK  157  A    between atoms: _373  and  _374
REMARK  158  A    between atoms: _374  and  _375
REMARK  159  A    between atoms: _375  and  _376
REMARK  160  A    between atoms: _376  and  _377
REMARK  161  A    between atoms: _381  and  _383
REMARK  162  A    between atoms: _383  and  _384
REMARK  163  A    between atoms: _386  and  _388
REMARK  164  A    between atoms: _388  and  _389
REMARK  165  A    between atoms: _388  and  _391
REMARK  166  A    between atoms: _391  and  _392
REMARK  167  A    between atoms: _395  and  _397
REMARK  168  A    between atoms: _397  and  _398
REMARK  169  A    between atoms: _397  and  _400
REMARK  170  A    between atoms: _400  and  _401
REMARK  171  A    between atoms: _403  and  _405
REMARK  172  A    between atoms: _405  and  _406
REMARK  173  A    between atoms: _408  and  _410
REMARK  174  A    between atoms: _410  and  _411
REMARK  175  A    between atoms: _413  and  _415
REMARK  176  A    between atoms: _415  and  _416
REMARK  177  A    between atoms: _415  and  _418
REMARK  178  A    between atoms: _418  and  _419
REMARK  179  A    between atoms: _422  and  _424
REMARK  180  A    between atoms: _424  and  _425
REMARK  181  A    between atoms: _424  and  _427
REMARK  182  A    between atoms: _427  and  _428
REMARK  183  A    between atoms: _431  and  _433
REMARK  184  A    between atoms: _433  and  _434
REMARK  185  A    between atoms: _433  and  _436
REMARK  186  A    between atoms: _436  and  _437
REMARK  187  A    between atoms: _440  and  _442
REMARK  188  A    between atoms: _442  and  _443
REMARK  189  A    between atoms: _442  and  _445
REMARK  190  A    between atoms: _445  and  _446
REMARK  191  A    between atoms: _448  and  _450
REMARK  192  A    between atoms: _450  and  _451
REMARK  193  A    between atoms: _450  and  _453
REMARK  194  A    between atoms: _453  and  _454
REMARK  195  A    between atoms: _464  and  _466
REMARK  196  A    between atoms: _466  and  _467
REMARK  197  A    between atoms: _469  and  _471
REMARK  198  A    between atoms: _471  and  _472
REMARK  199  A    between atoms: _471  and  _474
REMARK  200  A    between atoms: _474  and  _475
REMARK  201  A    between atoms: _475  and  _476
REMARK  202  A    between atoms: _479  and  _481
REMARK  203  A    between atoms: _481  and  _482
REMARK  204  A    between atoms: _484  and  _486
REMARK  205  A    between atoms: _486  and  _487
REMARK  206  A    between atoms: _486  and  _489
REMARK  207  A    between atoms: _489  and  _490
REMARK  208  A    between atoms: _491  and  _493
REMARK  209  A    between atoms: _493  and  _494
REMARK  210  A    between atoms: _497  and  _499
REMARK  211  A    between atoms: _499  and  _500
REMARK  212  A    between atoms: _499  and  _502
REMARK  213  A    between atoms: _502  and  _503
REMARK  214  A    between atoms: _503  and  _504
REMARK  215  A    between atoms: _509  and  _511
REMARK  216  A    between atoms: _511  and  _512
REMARK  217  A    between atoms: _511  and  _514
REMARK  218  A    between atoms: _514  and  _515
REMARK  219  A    between atoms: _515  and  _516
REMARK  220  A    between atoms: _516  and  _517
REMARK  221  A    between atoms: _527  and  _528
REMARK  222  A    between atoms: _533  and  _535
REMARK  223  A    between atoms: _535  and  _536
REMARK  224  A    between atoms: _538  and  _540
REMARK  225  A    between atoms: _540  and  _541
REMARK  226  A    between atoms: _540  and  _543
REMARK  227  A    between atoms: _546  and  _548
REMARK  228  A    between atoms: _548  and  _549
REMARK  229  A    between atoms: _548  and  _551
REMARK  230  A    between atoms: _551  and  _552
REMARK  231  A    between atoms: _557  and  _558
REMARK  232  A    between atoms: _560  and  _562
REMARK  233  A    between atoms: _562  and  _563
REMARK  234  A    between atoms: _562  and  _565
REMARK  235  A    between atoms: _565  and  _566
REMARK                            x       y       z     vdW  Elec       q    Type
REMARK                         _______ _______ _______ _____ _____    ______ ____
ROOT
ATOM      1  O   HOH     1      47.001 -16.151  24.052  0.00  0.00    +0.000 OA
ENDROOT
TORSDOF 0
REMARK  Name = ../refined-set-2016/5e2p/5e2p_pocket.pdb
REMARK  235 active torsions:
REMARK  status: ('A' for Active; 'I' for Inactive)
REMARK    1  A    between atoms: _1  and  _5
REMARK    2  A    between atoms: _5  and  _6
REMARK    3  A    between atoms: _5  and  _8
REMARK    4  A    between atoms: _8  and  _9
REMARK    5  A    between atoms: _12  and  _14
REMARK    6  A    between atoms: _14  and  _15
REMARK    7  A    between atoms: _14  and  _17
REMARK    8  A    between atoms: _20  and  _22
REMARK    9  A    between atoms: _22  and  _23
REMARK   10  A    between atoms: _22  and  _25
REMARK   11  A    between atoms: _25  and  _26
REMARK   12  A    between atoms: _29  and  _31
REMARK   13  A    between atoms: _31  and  _32
REMARK   14  A    between atoms: _31  and  _34
REMARK   15  A    between atoms: _34  and  _35
REMARK   16  A    between atoms: _38  and  _40
REMARK   17  A    between atoms: _40  and  _41
REMARK   18  A    between atoms: _40  and  _43
REMARK   19  A    between atoms: _43  and  _44
REMARK   20  A    between atoms: _47  and  _49
REMARK   21  A    between atoms: _49  and  _50
REMARK   22  A    between atoms: _49  and  _52
REMARK   23  A    between atoms: _52  and  _53
REMARK   24  A    between atoms: _56  and  _58
REMARK   25  A    between atoms: _58  and  _59
REMARK   26  A    between atoms: _58  and  _61
REMARK   27  A    between atoms: _61  and  _62
REMARK   28  A    between atoms: _62  and  _63
REMARK   29  A    between atoms: _68  and  _70
REMARK   30  A    between atoms: _70  and  _71
REMARK   31  A    between atoms: _70  and  _73
REMARK   32  A    between atoms: _73  and  _74
REMARK   33  A    between atoms: _74  and  _75
REMARK   34  A    between atoms: _75  and  _76
REMARK   35  A    between atoms: _85  and  _87
REMARK   36  A    between atoms: _87  and  _88
REMARK   37  A    between atoms: _87  and  _90
REMARK   38  A    between atoms: _90  and  _91
REMARK   39  A    between atoms: _96  and  _98
REMARK   40  A    between atoms: _98  and  _99
REMARK   41  A    between atoms: _98  and  _101
REMARK   42  A    between atoms: _101  and  _102
REMARK   43  A    between atoms: _105  and  _107
REMARK   44  A    between atoms: _107  and  _108
REMARK   45  A    between atoms: _107  and  _110
REMARK   46  A    between atoms: _110  and  _111
REMARK   47  A    between atoms: _111  and  _146
REMARK   48  A    between atoms: _112  and  _114
REMARK   49  A    between atoms: _114  and  _115
REMARK   50  A    between atoms: _117  and  _119
REMARK   51  A    between atoms: _119  and  _120
REMARK   52  A    between atoms: _123  and  _125
REMARK   53  A    between atoms: _125  and  _126
REMARK   54  A    between atoms: _129  and  _131
REMARK   55  A    between atoms: _131  and  _132
REMARK   56  A    between atoms: _131  and  _134
REMARK   57  A    between atoms: _134  and  _135
REMARK   58  A    between atoms: _140  and  _142
REMARK   59  A    between atoms: _142  and  _143
REMARK   60  A    between atoms: _142  and  _145
REMARK   61  A    between atoms: _145  and  _146
REMARK   62  A    between atoms: _147  and  _149
REMARK   63  A    between atoms: _149  and  _150
REMARK   64  A    between atoms: _149  and  _152
REMARK   65  A    between atoms: _152  and  _153
REMARK   66  A    between atoms: _159  and  _161
REMARK   67  A    between atoms: _161  and  _162
REMARK   68  A    between atoms: _161  and  _164
REMARK   69  A    between atoms: _164  and  _165
REMARK   70  A    between atoms: _170  and  _171
REMARK   71  A    between atoms: _173  and  _175
REMARK   72  A    between atoms: _175  and  _176
REMARK   73  A    between atoms: _178  and  _180
REMARK   74  A    between atoms: _180  and  _181
REMARK   75  A    between atoms: _180  and  _183
REMARK   76  A    between atoms: _186  and  _188
REMARK   77  A    between atoms: _188  and  _189
REMARK   78  A    between atoms: _192  and  _194
REMARK   79  A    between atoms: _194  and  _195
REMARK   80  A    between atoms: _194  and  _197
REMARK   81  A    between atoms: _197  and  _198
REMARK   82  A    between atoms: _201  and  _203
REMARK   83  A    between atoms: _203  and  _204
REMARK   84  A    between atoms: _203  and  _206
REMARK   85  A    between atoms: _209  and  _211
REMARK   86  A    between atoms: _211  and  _212
REMARK   87  A    between atoms: _211  and  _214
REMARK   88  A    between atoms: _214  and  _215
REMARK   89  A    between atoms: _225  and  _227
REMARK   90  A    between atoms: _227  and  _228
REMARK   91  A    between atoms: _230  and  _232
REMARK   92  A    between atoms: _232  and  _233
REMARK   93  A    between atoms: _232  and  _235
REMARK   94  A    between atoms: _235  and  _236
REMARK   95  A    between atoms: _241  and  _242
REMARK   96  A    between atoms: _244  and  _246
REMARK   97  A    between atoms: _246  and  _247
REMARK   98  A    between atoms: _246  and  _249
REMARK   99  A    between atoms: _249  and  _250
REMARK  100  A    between atoms: _250  and  _251
REMARK  101  A    between atoms: _251  and  _252
REMARK  102  A    between atoms: _252  and  _253
REMARK  103  A    between atoms: _257  and  _259
REMARK  104  A    between atoms: _259  and  _260
REMARK  105  A    between atoms: _259  and  _262
REMARK  106  A    between atoms: _262  and  _263
REMARK  107  A    between atoms: _266  and  _268
REMARK  108  A    between atoms: _268  and  _269
REMARK  109  A    between atoms: _268  and  _271
REMARK  110  A    between atoms: _271  and  _272
REMARK  111  A    between atoms: _275  and  _277
REMARK  112  A    between atoms: _277  and  _278
REMARK  113  A    between atoms: _277  and  _280
REMARK  114  A    between atoms: _280  and  _281
REMARK  115  A    between atoms: _281  and  _282
REMARK  116  A    between atoms: _282  and  _283
REMARK  117  A    between atoms: _283  and  _284
REMARK  118  A    between atoms: _288  and  _290
REMARK  119  A    between atoms: _290  and  _291
REMARK  120  A    between atoms: _290  and  _293
REMARK  121  A    between atoms: _293  and  _294
REMARK  122  A    between atoms: _297  and  _299
REMARK  123  A    between atoms: _299  and  _300
REMARK  124  A    between atoms: _299  and  _302
REMARK  125  A    between atoms: _302  and  _303
REMARK  126  A    between atoms: _308  and  _309
REMARK  127  A    between atoms: _311  and  _313
REMARK  128  A    between atoms: _313  and  _314
REMARK  129  A    between atoms: _313  and  _316
REMARK  130  A    between atoms: _316  and  _317
REMARK  131  A    between atoms: _320  and  _322
REMARK  132  A    between atoms: _322  and  _323
REMARK  133  A    between atoms: _322  and  _325
REMARK  134  A    between atoms: _327  and  _329
REMARK  135  A    between atoms: _329  and  _330
REMARK  136  A    between atoms: _333  and  _335
REMARK  137  A    between atoms: _335  and  _336
REMARK  138  A    between atoms: _335  and  _338
REMARK  139  A    between atoms: _338  and  _339
REMARK  140  A    between atoms: _339  and  _340
REMARK  141  A    between atoms: _340  and  _341
REMARK  142  A    between atoms: _341  and  _342
REMARK  143  A    between atoms: _346  and  _348
REMARK  144  A    between atoms: _348  and  _349
REMARK  145  A    between atoms: _348  and  _351
REMARK  146  A    between atoms: _351  and  _352
REMARK  147  A    between atoms: _355  and  _357
REMARK  148  A    between atoms: _357  and  _358
REMARK  149  A    between atoms: _361  and  _363
REMARK  150  A    between atoms: _363  and  _364
REMARK  151  A    between atoms: _363  and  _366
REMARK  152  A    between atoms: _366  and  _367
REMARK  153  A    between atoms: _367  and  _490
REMARK  154  A    between atoms: _368  and  _370
REMARK  155  A    between atoms: _370  and  _371
REMARK  156  A    between atoms: _370  and  _373
REMARK  157  A    between atoms: _373  and  _374
REMARK  158  A    between atoms: _374  and  _375
REMARK  159  A    between atoms: _375  and  _376
REMARK  160  A    between atoms: _376  and  _377
REMARK  161  A    between atoms: _381  and  _383
REMARK  162  A    between atoms: _383  and  _384
REMARK  163  A    between atoms: _386  and  _388
REMARK  164  A    between atoms: _388  and  _389
REMARK  165  A    between atoms: _388  and  _391
REMARK  166  A    between atoms: _391  and  _392
REMARK  167  A    between atoms: _395  and  _397
REMARK  168  A    between atoms: _397  and  _398
REMARK  169  A    between atoms: _397  and  _400
REMARK  170  A    between atoms: _400  and  _401
REMARK  171  A    between atoms: _403  and  _405
REMARK  172  A    between atoms: _405  and  _406
REMARK  173  A    between atoms: _408  and  _410
REMARK  174  A    between atoms: _410  and  _411
REMARK  175  A    between atoms: _413  and  _415
REMARK  176  A    between atoms: _415  and  _416
REMARK  177  A    between atoms: _415  and  _418
REMARK  178  A    between atoms: _418  and  _419
REMARK  179  A    between atoms: _422  and  _424
REMARK  180  A    between atoms: _424  and  _425
REMARK  181  A    between atoms: _424  and  _427
REMARK  182  A    between atoms: _427  and  _428
REMARK  183  A    between atoms: _431  and  _433
REMARK  184  A    between atoms: _433  and  _434
REMARK  185  A    between atoms: _433  and  _436
REMARK  186  A    between atoms: _436  and  _437
REMARK  187  A    between atoms: _440  and  _442
REMARK  188  A    between atoms: _442  and  _443
REMARK  189  A    between atoms: _442  and  _445
REMARK  190  A    between atoms: _445  and  _446
REMARK  191  A    between atoms: _448  and  _450
REMARK  192  A    between atoms: _450  and  _451
REMARK  193  A    between atoms: _450  and  _453
REMARK  194  A    between atoms: _453  and  _454
REMARK  195  A    between atoms: _464  and  _466
REMARK  196  A    between atoms: _466  and  _467
REMARK  197  A    between atoms: _469  and  _471
REMARK  198  A    between atoms: _471  and  _472
REMARK  199  A    between atoms: _471  and  _474
REMARK  200  A    between atoms: _474  and  _475
REMARK  201  A    between atoms: _475  and  _476
REMARK  202  A    between atoms: _479  and  _481
REMARK  203  A    between atoms: _481  and  _482
REMARK  204  A    between atoms: _484  and  _486
REMARK  205  A    between atoms: _486  and  _487
REMARK  206  A    between atoms: _486  and  _489
REMARK  207  A    between atoms: _489  and  _490
REMARK  208  A    between atoms: _491  and  _493
REMARK  209  A    between atoms: _493  and  _494
REMARK  210  A    between atoms: _497  and  _499
REMARK  211  A    between atoms: _499  and  _500
REMARK  212  A    between atoms: _499  and  _502
REMARK  213  A    between atoms: _502  and  _503
REMARK  214  A    between atoms: _503  and  _504
REMARK  215  A    between atoms: _509  and  _511
REMARK  216  A    between atoms: _511  and  _512
REMARK  217  A    between atoms: _511  and  _514
REMARK  218  A    between atoms: _514  and  _515
REMARK  219  A    between atoms: _515  and  _516
REMARK  220  A    between atoms: _516  and  _517
REMARK  221  A    between atoms: _527  and  _528
REMARK  222  A    between atoms: _533  and  _535
REMARK  223  A    between atoms: _535  and  _536
REMARK  224  A    between atoms: _538  and  _540
REMARK  225  A    between atoms: _540  and  _541
REMARK  226  A    between atoms: _540  and  _543
REMARK  227  A    between atoms: _546  and  _548
REMARK  228  A    between atoms: _548  and  _549
REMARK  229  A    between atoms: _548  and  _551
REMARK  230  A    between atoms: _551  and  _552
REMARK  231  A    between atoms: _557  and  _558
REMARK  232  A    between atoms: _560  and  _562
REMARK  233  A    between atoms: _562  and  _563
REMARK  234  A    between atoms: _562  and  _565
REMARK  235  A    between atoms: _565  and  _566
REMARK                            x       y       z     vdW  Elec       q    Type
REMARK                         _______ _______ _______ _____ _____    ______ ____
ROOT
ATOM      1  O   HOH     1      41.129 -29.353  30.191  0.00  0.00    +0.000 OA
ENDROOT
TORSDOF 0
REMARK  Name = ../refined-set-2016/5e2p/5e2p_pocket.pdb
REMARK  235 active torsions:
REMARK  status: ('A' for Active; 'I' for Inactive)
REMARK    1  A    between atoms: _1  and  _5
REMARK    2  A    between atoms: _5  and  _6
REMARK    3  A    between atoms: _5  and  _8
REMARK    4  A    between atoms: _8  and  _9
REMARK    5  A    between atoms: _12  and  _14
REMARK    6  A    between atoms: _14  and  _15
REMARK    7  A    between atoms: _14  and  _17
REMARK    8  A    between atoms: _20  and  _22
REMARK    9  A    between atoms: _22  and  _23
REMARK   10  A    between atoms: _22  and  _25
REMARK   11  A    between atoms: _25  and  _26
REMARK   12  A    between atoms: _29  and  _31
REMARK   13  A    between atoms: _31  and  _32
REMARK   14  A    between atoms: _31  and  _34
REMARK   15  A    between atoms: _34  and  _35
REMARK   16  A    between atoms: _38  and  _40
REMARK   17  A    between atoms: _40  and  _41
REMARK   18  A    between atoms: _40  and  _43
REMARK   19  A    between atoms: _43  and  _44
REMARK   20  A    between atoms: _47  and  _49
REMARK   21  A    between atoms: _49  and  _50
REMARK   22  A    between atoms: _49  and  _52
REMARK   23  A    between atoms: _52  and  _53
REMARK   24  A    between atoms: _56  and  _58
REMARK   25  A    between atoms: _58  and  _59
REMARK   26  A    between atoms: _58  and  _61
REMARK   27  A    between atoms: _61  and  _62
REMARK   28  A    between atoms: _62  and  _63
REMARK   29  A    between atoms: _68  and  _70
REMARK   30  A    between atoms: _70  and  _71
REMARK   31  A    between atoms: _70  and  _73
REMARK   32  A    between atoms: _73  and  _74
REMARK   33  A    between atoms: _74  and  _75
REMARK   34  A    between atoms: _75  and  _76
REMARK   35  A    between atoms: _85  and  _87
REMARK   36  A    between atoms: _87  and  _88
REMARK   37  A    between atoms: _87  and  _90
REMARK   38  A    between atoms: _90  and  _91
REMARK   39  A    between atoms: _96  and  _98
REMARK   40  A    between atoms: _98  and  _99
REMARK   41  A    between atoms: _98  and  _101
REMARK   42  A    between atoms: _101  and  _102
REMARK   43  A    between atoms: _105  and  _107
REMARK   44  A    between atoms: _107  and  _108
REMARK   45  A    between atoms: _107  and  _110
REMARK   46  A    between atoms: _110  and  _111
REMARK   47  A    between atoms: _111  and  _146
REMARK   48  A    between atoms: _112  and  _114
REMARK   49  A    between atoms: _114  and  _115
REMARK   50  A    between atoms: _117  and  _119
REMARK   51  A    between atoms: _119  and  _120
REMARK   52  A    between atoms: _123  and  _125
REMARK   53  A    between atoms: _125  and  _126
REMARK   54  A    between atoms: _129  and  _131
REMARK   55  A    between atoms: _131  and  _132
REMARK   56  A    between atoms: _131  and  _134
REMARK   57  A    between atoms: _134  and  _135
REMARK   58  A    between atoms: _140  and  _142
REMARK   59  A    between atoms: _142  and  _143
REMARK   60  A    between atoms: _142  and  _145
REMARK   61  A    between atoms: _145  and  _146
REMARK   62  A    between atoms: _147  and  _149
REMARK   63  A    between atoms: _149  and  _150
REMARK   64  A    between atoms: _149  and  _152
REMARK   65  A    between atoms: _152  and  _153
REMARK   66  A    between atoms: _159  and  _161
REMARK   67  A    between atoms: _161  and  _162
REMARK   68  A    between atoms: _161  and  _164
REMARK   69  A    between atoms: _164  and  _165
REMARK   70  A    between atoms: _170  and  _171
REMARK   71  A    between atoms: _173  and  _175
REMARK   72  A    between atoms: _175  and  _176
REMARK   73  A    between atoms: _178  and  _180
REMARK   74  A    between atoms: _180  and  _181
REMARK   75  A    between atoms: _180  and  _183
REMARK   76  A    between atoms: _186  and  _188
REMARK   77  A    between atoms: _188  and  _189
REMARK   78  A    between atoms: _192  and  _194
REMARK   79  A    between atoms: _194  and  _195
REMARK   80  A    between atoms: _194  and  _197
REMARK   81  A    between atoms: _197  and  _198
REMARK   82  A    between atoms: _201  and  _203
REMARK   83  A    between atoms: _203  and  _204
REMARK   84  A    between atoms: _203  and  _206
REMARK   85  A    between atoms: _209  and  _211
REMARK   86  A    between atoms: _211  and  _212
REMARK   87  A    between atoms: _211  and  _214
REMARK   88  A    between atoms: _214  and  _215
REMARK   89  A    between atoms: _225  and  _227
REMARK   90  A    between atoms: _227  and  _228
REMARK   91  A    between atoms: _230  and  _232
REMARK   92  A    between atoms: _232  and  _233
REMARK   93  A    between atoms: _232  and  _235
REMARK   94  A    between atoms: _235  and  _236
REMARK   95  A    between atoms: _241  and  _242
REMARK   96  A    between atoms: _244  and  _246
REMARK   97  A    between atoms: _246  and  _247
REMARK   98  A    between atoms: _246  and  _249
REMARK   99  A    between atoms: _249  and  _250
REMARK  100  A    between atoms: _250  and  _251
REMARK  101  A    between atoms: _251  and  _252
REMARK  102  A    between atoms: _252  and  _253
REMARK  103  A    between atoms: _257  and  _259
REMARK  104  A    between atoms: _259  and  _260
REMARK  105  A    between atoms: _259  and  _262
REMARK  106  A    between atoms: _262  and  _263
REMARK  107  A    between atoms: _266  and  _268
REMARK  108  A    between atoms: _268  and  _269
REMARK  109  A    between atoms: _268  and  _271
REMARK  110  A    between atoms: _271  and  _272
REMARK  111  A    between atoms: _275  and  _277
REMARK  112  A    between atoms: _277  and  _278
REMARK  113  A    between atoms: _277  and  _280
REMARK  114  A    between atoms: _280  and  _281
REMARK  115  A    between atoms: _281  and  _282
REMARK  116  A    between atoms: _282  and  _283
REMARK  117  A    between atoms: _283  and  _284
REMARK  118  A    between atoms: _288  and  _290
REMARK  119  A    between atoms: _290  and  _291
REMARK  120  A    between atoms: _290  and  _293
REMARK  121  A    between atoms: _293  and  _294
REMARK  122  A    between atoms: _297  and  _299
REMARK  123  A    between atoms: _299  and  _300
REMARK  124  A    between atoms: _299  and  _302
REMARK  125  A    between atoms: _302  and  _303
REMARK  126  A    between atoms: _308  and  _309
REMARK  127  A    between atoms: _311  and  _313
REMARK  128  A    between atoms: _313  and  _314
REMARK  129  A    between atoms: _313  and  _316
REMARK  130  A    between atoms: _316  and  _317
REMARK  131  A    between atoms: _320  and  _322
REMARK  132  A    between atoms: _322  and  _323
REMARK  133  A    between atoms: _322  and  _325
REMARK  134  A    between atoms: _327  and  _329
REMARK  135  A    between atoms: _329  and  _330
REMARK  136  A    between atoms: _333  and  _335
REMARK  137  A    between atoms: _335  and  _336
REMARK  138  A    between atoms: _335  and  _338
REMARK  139  A    between atoms: _338  and  _339
REMARK  140  A    between atoms: _339  and  _340
REMARK  141  A    between atoms: _340  and  _341
REMARK  142  A    between atoms: _341  and  _342
REMARK  143  A    between atoms: _346  and  _348
REMARK  144  A    between atoms: _348  and  _349
REMARK  145  A    between atoms: _348  and  _351
REMARK  146  A    between atoms: _351  and  _352
REMARK  147  A    between atoms: _355  and  _357
REMARK  148  A    between atoms: _357  and  _358
REMARK  149  A    between atoms: _361  and  _363
REMARK  150  A    between atoms: _363  and  _364
REMARK  151  A    between atoms: _363  and  _366
REMARK  152  A    between atoms: _366  and  _367
REMARK  153  A    between atoms: _367  and  _490
REMARK  154  A    between atoms: _368  and  _370
REMARK  155  A    between atoms: _370  and  _371
REMARK  156  A    between atoms: _370  and  _373
REMARK  157  A    between atoms: _373  and  _374
REMARK  158  A    between atoms: _374  and  _375
REMARK  159  A    between atoms: _375  and  _376
REMARK  160  A    between atoms: _376  and  _377
REMARK  161  A    between atoms: _381  and  _383
REMARK  162  A    between atoms: _383  and  _384
REMARK  163  A    between atoms: _386  and  _388
REMARK  164  A    between atoms: _388  and  _389
REMARK  165  A    between atoms: _388  and  _391
REMARK  166  A    between atoms: _391  and  _392
REMARK  167  A    between atoms: _395  and  _397
REMARK  168  A    between atoms: _397  and  _398
REMARK  169  A    between atoms: _397  and  _400
REMARK  170  A    between atoms: _400  and  _401
REMARK  171  A    between atoms: _403  and  _405
REMARK  172  A    between atoms: _405  and  _406
REMARK  173  A    between atoms: _408  and  _410
REMARK  174  A    between atoms: _410  and  _411
REMARK  175  A    between atoms: _413  and  _415
REMARK  176  A    between atoms: _415  and  _416
REMARK  177  A    between atoms: _415  and  _418
REMARK  178  A    between atoms: _418  and  _419
REMARK  179  A    between atoms: _422  and  _424
REMARK  180  A    between atoms: _424  and  _425
REMARK  181  A    between atoms: _424  and  _427
REMARK  182  A    between atoms: _427  and  _428
REMARK  183  A    between atoms: _431  and  _433
REMARK  184  A    between atoms: _433  and  _434
REMARK  185  A    between atoms: _433  and  _436
REMARK  186  A    between atoms: _436  and  _437
REMARK  187  A    between atoms: _440  and  _442
REMARK  188  A    between atoms: _442  and  _443
REMARK  189  A    between atoms: _442  and  _445
REMARK  190  A    between atoms: _445  and  _446
REMARK  191  A    between atoms: _448  and  _450
REMARK  192  A    between atoms: _450  and  _451
REMARK  193  A    between atoms: _450  and  _453
REMARK  194  A    between atoms: _453  and  _454
REMARK  195  A    between atoms: _464  and  _466
REMARK  196  A    between atoms: _466  and  _467
REMARK  197  A    between atoms: _469  and  _471
REMARK  198  A    between atoms: _471  and  _472
REMARK  199  A    between atoms: _471  and  _474
REMARK  200  A    between atoms: _474  and  _475
REMARK  201  A    between atoms: _475  and  _476
REMARK  202  A    between atoms: _479  and  _481
REMARK  203  A    between atoms: _481  and  _482
REMARK  204  A    between atoms: _484  and  _486
REMARK  205  A    between atoms: _486  and  _487
REMARK  206  A    between atoms: _486  and  _489
REMARK  207  A    between atoms: _489  and  _490
REMARK  208  A    between atoms: _491  and  _493
REMARK  209  A    between atoms: _493  and  _494
REMARK  210  A    between atoms: _497  and  _499
REMARK  211  A    between atoms: _499  and  _500
REMARK  212  A    between atoms: _499  and  _502
REMARK  213  A    between atoms: _502  and  _503
REMARK  214  A    between atoms: _503  and  _504
REMARK  215  A    between atoms: _509  and  _511
REMARK  216  A    between atoms: _511  and  _512
REMARK  217  A    between atoms: _511  and  _514
REMARK  218  A    between atoms: _514  and  _515
REMARK  219  A    between atoms: _515  and  _516
REMARK  220  A    between atoms: _516  and  _517
REMARK  221  A    between atoms: _527  and  _528
REMARK  222  A    between atoms: _533  and  _535
REMARK  223  A    between atoms: _535  and  _536
REMARK  224  A    between atoms: _538  and  _540
REMARK  225  A    between atoms: _540  and  _541
REMARK  226  A    between atoms: _540  and  _543
REMARK  227  A    between atoms: _546  and  _548
REMARK  228  A    between atoms: _548  and  _549
REMARK  229  A    between atoms: _548  and  _551
REMARK  230  A    between atoms: _551  and  _552
REMARK  231  A    between atoms: _557  and  _558
REMARK  232  A    between atoms: _560  and  _562
REMARK  233  A    between atoms: _562  and  _563
REMARK  234  A    between atoms: _562  and  _565
REMARK  235  A    between atoms: _565  and  _566
REMARK                            x       y       z     vdW  Elec       q    Type
REMARK                         _______ _______ _______ _____ _____    ______ ____
ROOT
ATOM      1  O   HOH     1      35.440 -15.343  36.961  0.00  0.00    +0.000 OA
ENDROOT
TORSDOF 0
REMARK  Name = ../refined-set-2016/5e2p/5e2p_pocket.pdb
REMARK  235 active torsions:
REMARK  status: ('A' for Active; 'I' for Inactive)
REMARK    1  A    between atoms: _1  and  _5
REMARK    2  A    between atoms: _5  and  _6
REMARK    3  A    between atoms: _5  and  _8
REMARK    4  A    between atoms: _8  and  _9
REMARK    5  A    between atoms: _12  and  _14
REMARK    6  A    between atoms: _14  and  _15
REMARK    7  A    between atoms: _14  and  _17
REMARK    8  A    between atoms: _20  and  _22
REMARK    9  A    between atoms: _22  and  _23
REMARK   10  A    between atoms: _22  and  _25
REMARK   11  A    between atoms: _25  and  _26
REMARK   12  A    between atoms: _29  and  _31
REMARK   13  A    between atoms: _31  and  _32
REMARK   14  A    between atoms: _31  and  _34
REMARK   15  A    between atoms: _34  and  _35
REMARK   16  A    between atoms: _38  and  _40
REMARK   17  A    between atoms: _40  and  _41
REMARK   18  A    between atoms: _40  and  _43
REMARK   19  A    between atoms: _43  and  _44
REMARK   20  A    between atoms: _47  and  _49
REMARK   21  A    between atoms: _49  and  _50
REMARK   22  A    between atoms: _49  and  _52
REMARK   23  A    between atoms: _52  and  _53
REMARK   24  A    between atoms: _56  and  _58
REMARK   25  A    between atoms: _58  and  _59
REMARK   26  A    between atoms: _58  and  _61
REMARK   27  A    between atoms: _61  and  _62
REMARK   28  A    between atoms: _62  and  _63
REMARK   29  A    between atoms: _68  and  _70
REMARK   30  A    between atoms: _70  and  _71
REMARK   31  A    between atoms: _70  and  _73
REMARK   32  A    between atoms: _73  and  _74
REMARK   33  A    between atoms: _74  and  _75
REMARK   34  A    between atoms: _75  and  _76
REMARK   35  A    between atoms: _85  and  _87
REMARK   36  A    between atoms: _87  and  _88
REMARK   37  A    between atoms: _87  and  _90
REMARK   38  A    between atoms: _90  and  _91
REMARK   39  A    between atoms: _96  and  _98
REMARK   40  A    between atoms: _98  and  _99
REMARK   41  A    between atoms: _98  and  _101
REMARK   42  A    between atoms: _101  and  _102
REMARK   43  A    between atoms: _105  and  _107
REMARK   44  A    between atoms: _107  and  _108
REMARK   45  A    between atoms: _107  and  _110
REMARK   46  A    between atoms: _110  and  _111
REMARK   47  A    between atoms: _111  and  _146
REMARK   48  A    between atoms: _112  and  _114
REMARK   49  A    between atoms: _114  and  _115
REMARK   50  A    between atoms: _117  and  _119
REMARK   51  A    between atoms: _119  and  _120
REMARK   52  A    between atoms: _123  and  _125
REMARK   53  A    between atoms: _125  and  _126
REMARK   54  A    between atoms: _129  and  _131
REMARK   55  A    between atoms: _131  and  _132
REMARK   56  A    between atoms: _131  and  _134
REMARK   57  A    between atoms: _134  and  _135
REMARK   58  A    between atoms: _140  and  _142
REMARK   59  A    between atoms: _142  and  _143
REMARK   60  A    between atoms: _142  and  _145
REMARK   61  A    between atoms: _145  and  _146
REMARK   62  A    between atoms: _147  and  _149
REMARK   63  A    between atoms: _149  and  _150
REMARK   64  A    between atoms: _149  and  _152
REMARK   65  A    between atoms: _152  and  _153
REMARK   66  A    between atoms: _159  and  _161
REMARK   67  A    between atoms: _161  and  _162
REMARK   68  A    between atoms: _161  and  _164
REMARK   69  A    between atoms: _164  and  _165
REMARK   70  A    between atoms: _170  and  _171
REMARK   71  A    between atoms: _173  and  _175
REMARK   72  A    between atoms: _175  and  _176
REMARK   73  A    between atoms: _178  and  _180
REMARK   74  A    between atoms: _180  and  _181
REMARK   75  A    between atoms: _180  and  _183
REMARK   76  A    between atoms: _186  and  _188
REMARK   77  A    between atoms: _188  and  _189
REMARK   78  A    between atoms: _192  and  _194
REMARK   79  A    between atoms: _194  and  _195
REMARK   80  A    between atoms: _194  and  _197
REMARK   81  A    between atoms: _197  and  _198
REMARK   82  A    between atoms: _201  and  _203
REMARK   83  A    between atoms: _203  and  _204
REMARK   84  A    between atoms: _203  and  _206
REMARK   85  A    between atoms: _209  and  _211
REMARK   86  A    between atoms: _211  and  _212
REMARK   87  A    between atoms: _211  and  _214
REMARK   88  A    between atoms: _214  and  _215
REMARK   89  A    between atoms: _225  and  _227
REMARK   90  A    between atoms: _227  and  _228
REMARK   91  A    between atoms: _230  and  _232
REMARK   92  A    between atoms: _232  and  _233
REMARK   93  A    between atoms: _232  and  _235
REMARK   94  A    between atoms: _235  and  _236
REMARK   95  A    between atoms: _241  and  _242
REMARK   96  A    between atoms: _244  and  _246
REMARK   97  A    between atoms: _246  and  _247
REMARK   98  A    between atoms: _246  and  _249
REMARK   99  A    between atoms: _249  and  _250
REMARK  100  A    between atoms: _250  and  _251
REMARK  101  A    between atoms: _251  and  _252
REMARK  102  A    between atoms: _252  and  _253
REMARK  103  A    between atoms: _257  and  _259
REMARK  104  A    between atoms: _259  and  _260
REMARK  105  A    between atoms: _259  and  _262
REMARK  106  A    between atoms: _262  and  _263
REMARK  107  A    between atoms: _266  and  _268
REMARK  108  A    between atoms: _268  and  _269
REMARK  109  A    between atoms: _268  and  _271
REMARK  110  A    between atoms: _271  and  _272
REMARK  111  A    between atoms: _275  and  _277
REMARK  112  A    between atoms: _277  and  _278
REMARK  113  A    between atoms: _277  and  _280
REMARK  114  A    between atoms: _280  and  _281
REMARK  115  A    between atoms: _281  and  _282
REMARK  116  A    between atoms: _282  and  _283
REMARK  117  A    between atoms: _283  and  _284
REMARK  118  A    between atoms: _288  and  _290
REMARK  119  A    between atoms: _290  and  _291
REMARK  120  A    between atoms: _290  and  _293
REMARK  121  A    between atoms: _293  and  _294
REMARK  122  A    between atoms: _297  and  _299
REMARK  123  A    between atoms: _299  and  _300
REMARK  124  A    between atoms: _299  and  _302
REMARK  125  A    between atoms: _302  and  _303
REMARK  126  A    between atoms: _308  and  _309
REMARK  127  A    between atoms: _311  and  _313
REMARK  128  A    between atoms: _313  and  _314
REMARK  129  A    between atoms: _313  and  _316
REMARK  130  A    between atoms: _316  and  _317
REMARK  131  A    between atoms: _320  and  _322
REMARK  132  A    between atoms: _322  and  _323
REMARK  133  A    between atoms: _322  and  _325
REMARK  134  A    between atoms: _327  and  _329
REMARK  135  A    between atoms: _329  and  _330
REMARK  136  A    between atoms: _333  and  _335
REMARK  137  A    between atoms: _335  and  _336
REMARK  138  A    between atoms: _335  and  _338
REMARK  139  A    between atoms: _338  and  _339
REMARK  140  A    between atoms: _339  and  _340
REMARK  141  A    between atoms: _340  and  _341
REMARK  142  A    between atoms: _341  and  _342
REMARK  143  A    between atoms: _346  and  _348
REMARK  144  A    between atoms: _348  and  _349
REMARK  145  A    between atoms: _348  and  _351
REMARK  146  A    between atoms: _351  and  _352
REMARK  147  A    between atoms: _355  and  _357
REMARK  148  A    between atoms: _357  and  _358
REMARK  149  A    between atoms: _361  and  _363
REMARK  150  A    between atoms: _363  and  _364
REMARK  151  A    between atoms: _363  and  _366
REMARK  152  A    between atoms: _366  and  _367
REMARK  153  A    between atoms: _367  and  _490
REMARK  154  A    between atoms: _368  and  _370
REMARK  155  A    between atoms: _370  and  _371
REMARK  156  A    between atoms: _370  and  _373
REMARK  157  A    between atoms: _373  and  _374
REMARK  158  A    between atoms: _374  and  _375
REMARK  159  A    between atoms: _375  and  _376
REMARK  160  A    between atoms: _376  and  _377
REMARK  161  A    between atoms: _381  and  _383
REMARK  162  A    between atoms: _383  and  _384
REMARK  163  A    between atoms: _386  and  _388
REMARK  164  A    between atoms: _388  and  _389
REMARK  165  A    between atoms: _388  and  _391
REMARK  166  A    between atoms: _391  and  _392
REMARK  167  A    between atoms: _395  and  _397
REMARK  168  A    between atoms: _397  and  _398
REMARK  169  A    between atoms: _397  and  _400
REMARK  170  A    between atoms: _400  and  _401
REMARK  171  A    between atoms: _403  and  _405
REMARK  172  A    between atoms: _405  and  _406
REMARK  173  A    between atoms: _408  and  _410
REMARK  174  A    between atoms: _410  and  _411
REMARK  175  A    between atoms: _413  and  _415
REMARK  176  A    between atoms: _415  and  _416
REMARK  177  A    between atoms: _415  and  _418
REMARK  178  A    between atoms: _418  and  _419
REMARK  179  A    between atoms: _422  and  _424
REMARK  180  A    between atoms: _424  and  _425
REMARK  181  A    between atoms: _424  and  _427
REMARK  182  A    between atoms: _427  and  _428
REMARK  183  A    between atoms: _431  and  _433
REMARK  184  A    between atoms: _433  and  _434
REMARK  185  A    between atoms: _433  and  _436
REMARK  186  A    between atoms: _436  and  _437
REMARK  187  A    between atoms: _440  and  _442
REMARK  188  A    between atoms: _442  and  _443
REMARK  189  A    between atoms: _442  and  _445
REMARK  190  A    between atoms: _445  and  _446
REMARK  191  A    between atoms: _448  and  _450
REMARK  192  A    between atoms: _450  and  _451
REMARK  193  A    between atoms: _450  and  _453
REMARK  194  A    between atoms: _453  and  _454
REMARK  195  A    between atoms: _464  and  _466
REMARK  196  A    between atoms: _466  and  _467
REMARK  197  A    between atoms: _469  and  _471
REMARK  198  A    between atoms: _471  and  _472
REMARK  199  A    between atoms: _471  and  _474
REMARK  200  A    between atoms: _474  and  _475
REMARK  201  A    between atoms: _475  and  _476
REMARK  202  A    between atoms: _479  and  _481
REMARK  203  A    between atoms: _481  and  _482
REMARK  204  A    between atoms: _484  and  _486
REMARK  205  A    between atoms: _486  and  _487
REMARK  206  A    between atoms: _486  and  _489
REMARK  207  A    between atoms: _489  and  _490
REMARK  208  A    between atoms: _491  and  _493
REMARK  209  A    between atoms: _493  and  _494
REMARK  210  A    between atoms: _497  and  _499
REMARK  211  A    between atoms: _499  and  _500
REMARK  212  A    between atoms: _499  and  _502
REMARK  213  A    between atoms: _502  and  _503
REMARK  214  A    between atoms: _503  and  _504
REMARK  215  A    between atoms: _509  and  _511
REMARK  216  A    between atoms: _511  and  _512
REMARK  217  A    between atoms: _511  and  _514
REMARK  218  A    between atoms: _514  and  _515
REMARK  219  A    between atoms: _515  and  _516
REMARK  220  A    between atoms: _516  and  _517
REMARK  221  A    between atoms: _527  and  _528
REMARK  222  A    between atoms: _533  and  _535
REMARK  223  A    between atoms: _535  and  _536
REMARK  224  A    between atoms: _538  and  _540
REMARK  225  A    between atoms: _540  and  _541
REMARK  226  A    between atoms: _540  and  _543
REMARK  227  A    between atoms: _546  and  _548
REMARK  228  A    between atoms: _548  and  _549
REMARK  229  A    between atoms: _548  and  _551
REMARK  230  A    between atoms: _551  and  _552
REMARK  231  A    between atoms: _557  and  _558
REMARK  232  A    between atoms: _560  and  _562
REMARK  233  A    between atoms: _562  and  _563
REMARK  234  A    between atoms: _562  and  _565
REMARK  235  A    between atoms: _565  and  _566
REMARK                            x       y       z     vdW  Elec       q    Type
REMARK                         _______ _______ _______ _____ _____    ______ ____
ROOT
ATOM      1  O   HOH     1      34.677  -6.452  26.464  0.00  0.00    +0.000 OA
ENDROOT
TORSDOF 0
REMARK  Name = ../refined-set-2016/5e2p/5e2p_pocket.pdb
REMARK  235 active torsions:
REMARK  status: ('A' for Active; 'I' for Inactive)
REMARK    1  A    between atoms: _1  and  _5
REMARK    2  A    between atoms: _5  and  _6
REMARK    3  A    between atoms: _5  and  _8
REMARK    4  A    between atoms: _8  and  _9
REMARK    5  A    between atoms: _12  and  _14
REMARK    6  A    between atoms: _14  and  _15
REMARK    7  A    between atoms: _14  and  _17
REMARK    8  A    between atoms: _20  and  _22
REMARK    9  A    between atoms: _22  and  _23
REMARK   10  A    between atoms: _22  and  _25
REMARK   11  A    between atoms: _25  and  _26
REMARK   12  A    between atoms: _29  and  _31
REMARK   13  A    between atoms: _31  and  _32
REMARK   14  A    between atoms: _31  and  _34
REMARK   15  A    between atoms: _34  and  _35
REMARK   16  A    between atoms: _38  and  _40
REMARK   17  A    between atoms: _40  and  _41
REMARK   18  A    between atoms: _40  and  _43
REMARK   19  A    between atoms: _43  and  _44
REMARK   20  A    between atoms: _47  and  _49
REMARK   21  A    between atoms: _49  and  _50
REMARK   22  A    between atoms: _49  and  _52
REMARK   23  A    between atoms: _52  and  _53
REMARK   24  A    between atoms: _56  and  _58
REMARK   25  A    between atoms: _58  and  _59
REMARK   26  A    between atoms: _58  and  _61
REMARK   27  A    between atoms: _61  and  _62
REMARK   28  A    between atoms: _62  and  _63
REMARK   29  A    between atoms: _68  and  _70
REMARK   30  A    between atoms: _70  and  _71
REMARK   31  A    between atoms: _70  and  _73
REMARK   32  A    between atoms: _73  and  _74
REMARK   33  A    between atoms: _74  and  _75
REMARK   34  A    between atoms: _75  and  _76
REMARK   35  A    between atoms: _85  and  _87
REMARK   36  A    between atoms: _87  and  _88
REMARK   37  A    between atoms: _87  and  _90
REMARK   38  A    between atoms: _90  and  _91
REMARK   39  A    between atoms: _96  and  _98
REMARK   40  A    between atoms: _98  and  _99
REMARK   41  A    between atoms: _98  and  _101
REMARK   42  A    between atoms: _101  and  _102
REMARK   43  A    between atoms: _105  and  _107
REMARK   44  A    between atoms: _107  and  _108
REMARK   45  A    between atoms: _107  and  _110
REMARK   46  A    between atoms: _110  and  _111
REMARK   47  A    between atoms: _111  and  _146
REMARK   48  A    between atoms: _112  and  _114
REMARK   49  A    between atoms: _114  and  _115
REMARK   50  A    between atoms: _117  and  _119
REMARK   51  A    between atoms: _119  and  _120
REMARK   52  A    between atoms: _123  and  _125
REMARK   53  A    between atoms: _125  and  _126
REMARK   54  A    between atoms: _129  and  _131
REMARK   55  A    between atoms: _131  and  _132
REMARK   56  A    between atoms: _131  and  _134
REMARK   57  A    between atoms: _134  and  _135
REMARK   58  A    between atoms: _140  and  _142
REMARK   59  A    between atoms: _142  and  _143
REMARK   60  A    between atoms: _142  and  _145
REMARK   61  A    between atoms: _145  and  _146
REMARK   62  A    between atoms: _147  and  _149
REMARK   63  A    between atoms: _149  and  _150
REMARK   64  A    between atoms: _149  and  _152
REMARK   65  A    between atoms: _152  and  _153
REMARK   66  A    between atoms: _159  and  _161
REMARK   67  A    between atoms: _161  and  _162
REMARK   68  A    between atoms: _161  and  _164
REMARK   69  A    between atoms: _164  and  _165
REMARK   70  A    between atoms: _170  and  _171
REMARK   71  A    between atoms: _173  and  _175
REMARK   72  A    between atoms: _175  and  _176
REMARK   73  A    between atoms: _178  and  _180
REMARK   74  A    between atoms: _180  and  _181
REMARK   75  A    between atoms: _180  and  _183
REMARK   76  A    between atoms: _186  and  _188
REMARK   77  A    between atoms: _188  and  _189
REMARK   78  A    between atoms: _192  and  _194
REMARK   79  A    between atoms: _194  and  _195
REMARK   80  A    between atoms: _194  and  _197
REMARK   81  A    between atoms: _197  and  _198
REMARK   82  A    between atoms: _201  and  _203
REMARK   83  A    between atoms: _203  and  _204
REMARK   84  A    between atoms: _203  and  _206
REMARK   85  A    between atoms: _209  and  _211
REMARK   86  A    between atoms: _211  and  _212
REMARK   87  A    between atoms: _211  and  _214
REMARK   88  A    between atoms: _214  and  _215
REMARK   89  A    between atoms: _225  and  _227
REMARK   90  A    between atoms: _227  and  _228
REMARK   91  A    between atoms: _230  and  _232
REMARK   92  A    between atoms: _232  and  _233
REMARK   93  A    between atoms: _232  and  _235
REMARK   94  A    between atoms: _235  and  _236
REMARK   95  A    between atoms: _241  and  _242
REMARK   96  A    between atoms: _244  and  _246
REMARK   97  A    between atoms: _246  and  _247
REMARK   98  A    between atoms: _246  and  _249
REMARK   99  A    between atoms: _249  and  _250
REMARK  100  A    between atoms: _250  and  _251
REMARK  101  A    between atoms: _251  and  _252
REMARK  102  A    between atoms: _252  and  _253
REMARK  103  A    between atoms: _257  and  _259
REMARK  104  A    between atoms: _259  and  _260
REMARK  105  A    between atoms: _259  and  _262
REMARK  106  A    between atoms: _262  and  _263
REMARK  107  A    between atoms: _266  and  _268
REMARK  108  A    between atoms: _268  and  _269
REMARK  109  A    between atoms: _268  and  _271
REMARK  110  A    between atoms: _271  and  _272
REMARK  111  A    between atoms: _275  and  _277
REMARK  112  A    between atoms: _277  and  _278
REMARK  113  A    between atoms: _277  and  _280
REMARK  114  A    between atoms: _280  and  _281
REMARK  115  A    between atoms: _281  and  _282
REMARK  116  A    between atoms: _282  and  _283
REMARK  117  A    between atoms: _283  and  _284
REMARK  118  A    between atoms: _288  and  _290
REMARK  119  A    between atoms: _290  and  _291
REMARK  120  A    between atoms: _290  and  _293
REMARK  121  A    between atoms: _293  and  _294
REMARK  122  A    between atoms: _297  and  _299
REMARK  123  A    between atoms: _299  and  _300
REMARK  124  A    between atoms: _299  and  _302
REMARK  125  A    between atoms: _302  and  _303
REMARK  126  A    between atoms: _308  and  _309
REMARK  127  A    between atoms: _311  and  _313
REMARK  128  A    between atoms: _313  and  _314
REMARK  129  A    between atoms: _313  and  _316
REMARK  130  A    between atoms: _316  and  _317
REMARK  131  A    between atoms: _320  and  _322
REMARK  132  A    between atoms: _322  and  _323
REMARK  133  A    between atoms: _322  and  _325
REMARK  134  A    between atoms: _327  and  _329
REMARK  135  A    between atoms: _329  and  _330
REMARK  136  A    between atoms: _333  and  _335
REMARK  137  A    between atoms: _335  and  _336
REMARK  138  A    between atoms: _335  and  _338
REMARK  139  A    between atoms: _338  and  _339
REMARK  140  A    between atoms: _339  and  _340
REMARK  141  A    between atoms: _340  and  _341
REMARK  142  A    between atoms: _341  and  _342
REMARK  143  A    between atoms: _346  and  _348
REMARK  144  A    between atoms: _348  and  _349
REMARK  145  A    between atoms: _348  and  _351
REMARK  146  A    between atoms: _351  and  _352
REMARK  147  A    between atoms: _355  and  _357
REMARK  148  A    between atoms: _357  and  _358
REMARK  149  A    between atoms: _361  and  _363
REMARK  150  A    between atoms: _363  and  _364
REMARK  151  A    between atoms: _363  and  _366
REMARK  152  A    between atoms: _366  and  _367
REMARK  153  A    between atoms: _367  and  _490
REMARK  154  A    between atoms: _368  and  _370
REMARK  155  A    between atoms: _370  and  _371
REMARK  156  A    between atoms: _370  and  _373
REMARK  157  A    between atoms: _373  and  _374
REMARK  158  A    between atoms: _374  and  _375
REMARK  159  A    between atoms: _375  and  _376
REMARK  160  A    between atoms: _376  and  _377
REMARK  161  A    between atoms: _381  and  _383
REMARK  162  A    between atoms: _383  and  _384
REMARK  163  A    between atoms: _386  and  _388
REMARK  164  A    between atoms: _388  and  _389
REMARK  165  A    between atoms: _388  and  _391
REMARK  166  A    between atoms: _391  and  _392
REMARK  167  A    between atoms: _395  and  _397
REMARK  168  A    between atoms: _397  and  _398
REMARK  169  A    between atoms: _397  and  _400
REMARK  170  A    between atoms: _400  and  _401
REMARK  171  A    between atoms: _403  and  _405
REMARK  172  A    between atoms: _405  and  _406
REMARK  173  A    between atoms: _408  and  _410
REMARK  174  A    between atoms: _410  and  _411
REMARK  175  A    between atoms: _413  and  _415
REMARK  176  A    between atoms: _415  and  _416
REMARK  177  A    between atoms: _415  and  _418
REMARK  178  A    between atoms: _418  and  _419
REMARK  179  A    between atoms: _422  and  _424
REMARK  180  A    between atoms: _424  and  _425
REMARK  181  A    between atoms: _424  and  _427
REMARK  182  A    between atoms: _427  and  _428
REMARK  183  A    between atoms: _431  and  _433
REMARK  184  A    between atoms: _433  and  _434
REMARK  185  A    between atoms: _433  and  _436
REMARK  186  A    between atoms: _436  and  _437
REMARK  187  A    between atoms: _440  and  _442
REMARK  188  A    between atoms: _442  and  _443
REMARK  189  A    between atoms: _442  and  _445
REMARK  190  A    between atoms: _445  and  _446
REMARK  191  A    between atoms: _448  and  _450
REMARK  192  A    between atoms: _450  and  _451
REMARK  193  A    between atoms: _450  and  _453
REMARK  194  A    between atoms: _453  and  _454
REMARK  195  A    between atoms: _464  and  _466
REMARK  196  A    between atoms: _466  and  _467
REMARK  197  A    between atoms: _469  and  _471
REMARK  198  A    between atoms: _471  and  _472
REMARK  199  A    between atoms: _471  and  _474
REMARK  200  A    between atoms: _474  and  _475
REMARK  201  A    between atoms: _475  and  _476
REMARK  202  A    between atoms: _479  and  _481
REMARK  203  A    between atoms: _481  and  _482
REMARK  204  A    between atoms: _484  and  _486
REMARK  205  A    between atoms: _486  and  _487
REMARK  206  A    between atoms: _486  and  _489
REMARK  207  A    between atoms: _489  and  _490
REMARK  208  A    between atoms: _491  and  _493
REMARK  209  A    between atoms: _493  and  _494
REMARK  210  A    between atoms: _497  and  _499
REMARK  211  A    between atoms: _499  and  _500
REMARK  212  A    between atoms: _499  and  _502
REMARK  213  A    between atoms: _502  and  _503
REMARK  214  A    between atoms: _503  and  _504
REMARK  215  A    between atoms: _509  and  _511
REMARK  216  A    between atoms: _511  and  _512
REMARK  217  A    between atoms: _511  and  _514
REMARK  218  A    between atoms: _514  and  _515
REMARK  219  A    between atoms: _515  and  _516
REMARK  220  A    between atoms: _516  and  _517
REMARK  221  A    between atoms: _527  and  _528
REMARK  222  A    between atoms: _533  and  _535
REMARK  223  A    between atoms: _535  and  _536
REMARK  224  A    between atoms: _538  and  _540
REMARK  225  A    between atoms: _540  and  _541
REMARK  226  A    between atoms: _540  and  _543
REMARK  227  A    between atoms: _546  and  _548
REMARK  228  A    between atoms: _548  and  _549
REMARK  229  A    between atoms: _548  and  _551
REMARK  230  A    between atoms: _551  and  _552
REMARK  231  A    between atoms: _557  and  _558
REMARK  232  A    between atoms: _560  and  _562
REMARK  233  A    between atoms: _562  and  _563
REMARK  234  A    between atoms: _562  and  _565
REMARK  235  A    between atoms: _565  and  _566
REMARK                            x       y       z     vdW  Elec       q    Type
REMARK                         _______ _______ _______ _____ _____    ______ ____
ROOT
ATOM      1  O   HOH     1      47.747 -21.414  26.966  0.00  0.00    +0.000 OA
ENDROOT
TORSDOF 0
REMARK  Name = ../refined-set-2016/5e2p/5e2p_pocket.pdb
REMARK  235 active torsions:
REMARK  status: ('A' for Active; 'I' for Inactive)
REMARK    1  A    between atoms: _1  and  _5
REMARK    2  A    between atoms: _5  and  _6
REMARK    3  A    between atoms: _5  and  _8
REMARK    4  A    between atoms: _8  and  _9
REMARK    5  A    between atoms: _12  and  _14
REMARK    6  A    between atoms: _14  and  _15
REMARK    7  A    between atoms: _14  and  _17
REMARK    8  A    between atoms: _20  and  _22
REMARK    9  A    between atoms: _22  and  _23
REMARK   10  A    between atoms: _22  and  _25
REMARK   11  A    between atoms: _25  and  _26
REMARK   12  A    between atoms: _29  and  _31
REMARK   13  A    between atoms: _31  and  _32
REMARK   14  A    between atoms: _31  and  _34
REMARK   15  A    between atoms: _34  and  _35
REMARK   16  A    between atoms: _38  and  _40
REMARK   17  A    between atoms: _40  and  _41
REMARK   18  A    between atoms: _40  and  _43
REMARK   19  A    between atoms: _43  and  _44
REMARK   20  A    between atoms: _47  and  _49
REMARK   21  A    between atoms: _49  and  _50
REMARK   22  A    between atoms: _49  and  _52
REMARK   23  A    between atoms: _52  and  _53
REMARK   24  A    between atoms: _56  and  _58
REMARK   25  A    between atoms: _58  and  _59
REMARK   26  A    between atoms: _58  and  _61
REMARK   27  A    between atoms: _61  and  _62
REMARK   28  A    between atoms: _62  and  _63
REMARK   29  A    between atoms: _68  and  _70
REMARK   30  A    between atoms: _70  and  _71
REMARK   31  A    between atoms: _70  and  _73
REMARK   32  A    between atoms: _73  and  _74
REMARK   33  A    between atoms: _74  and  _75
REMARK   34  A    between atoms: _75  and  _76
REMARK   35  A    between atoms: _85  and  _87
REMARK   36  A    between atoms: _87  and  _88
REMARK   37  A    between atoms: _87  and  _90
REMARK   38  A    between atoms: _90  and  _91
REMARK   39  A    between atoms: _96  and  _98
REMARK   40  A    between atoms: _98  and  _99
REMARK   41  A    between atoms: _98  and  _101
REMARK   42  A    between atoms: _101  and  _102
REMARK   43  A    between atoms: _105  and  _107
REMARK   44  A    between atoms: _107  and  _108
REMARK   45  A    between atoms: _107  and  _110
REMARK   46  A    between atoms: _110  and  _111
REMARK   47  A    between atoms: _111  and  _146
REMARK   48  A    between atoms: _112  and  _114
REMARK   49  A    between atoms: _114  and  _115
REMARK   50  A    between atoms: _117  and  _119
REMARK   51  A    between atoms: _119  and  _120
REMARK   52  A    between atoms: _123  and  _125
REMARK   53  A    between atoms: _125  and  _126
REMARK   54  A    between atoms: _129  and  _131
REMARK   55  A    between atoms: _131  and  _132
REMARK   56  A    between atoms: _131  and  _134
REMARK   57  A    between atoms: _134  and  _135
REMARK   58  A    between atoms: _140  and  _142
REMARK   59  A    between atoms: _142  and  _143
REMARK   60  A    between atoms: _142  and  _145
REMARK   61  A    between atoms: _145  and  _146
REMARK   62  A    between atoms: _147  and  _149
REMARK   63  A    between atoms: _149  and  _150
REMARK   64  A    between atoms: _149  and  _152
REMARK   65  A    between atoms: _152  and  _153
REMARK   66  A    between atoms: _159  and  _161
REMARK   67  A    between atoms: _161  and  _162
REMARK   68  A    between atoms: _161  and  _164
REMARK   69  A    between atoms: _164  and  _165
REMARK   70  A    between atoms: _170  and  _171
REMARK   71  A    between atoms: _173  and  _175
REMARK   72  A    between atoms: _175  and  _176
REMARK   73  A    between atoms: _178  and  _180
REMARK   74  A    between atoms: _180  and  _181
REMARK   75  A    between atoms: _180  and  _183
REMARK   76  A    between atoms: _186  and  _188
REMARK   77  A    between atoms: _188  and  _189
REMARK   78  A    between atoms: _192  and  _194
REMARK   79  A    between atoms: _194  and  _195
REMARK   80  A    between atoms: _194  and  _197
REMARK   81  A    between atoms: _197  and  _198
REMARK   82  A    between atoms: _201  and  _203
REMARK   83  A    between atoms: _203  and  _204
REMARK   84  A    between atoms: _203  and  _206
REMARK   85  A    between atoms: _209  and  _211
REMARK   86  A    between atoms: _211  and  _212
REMARK   87  A    between atoms: _211  and  _214
REMARK   88  A    between atoms: _214  and  _215
REMARK   89  A    between atoms: _225  and  _227
REMARK   90  A    between atoms: _227  and  _228
REMARK   91  A    between atoms: _230  and  _232
REMARK   92  A    between atoms: _232  and  _233
REMARK   93  A    between atoms: _232  and  _235
REMARK   94  A    between atoms: _235  and  _236
REMARK   95  A    between atoms: _241  and  _242
REMARK   96  A    between atoms: _244  and  _246
REMARK   97  A    between atoms: _246  and  _247
REMARK   98  A    between atoms: _246  and  _249
REMARK   99  A    between atoms: _249  and  _250
REMARK  100  A    between atoms: _250  and  _251
REMARK  101  A    between atoms: _251  and  _252
REMARK  102  A    between atoms: _252  and  _253
REMARK  103  A    between atoms: _257  and  _259
REMARK  104  A    between atoms: _259  and  _260
REMARK  105  A    between atoms: _259  and  _262
REMARK  106  A    between atoms: _262  and  _263
REMARK  107  A    between atoms: _266  and  _268
REMARK  108  A    between atoms: _268  and  _269
REMARK  109  A    between atoms: _268  and  _271
REMARK  110  A    between atoms: _271  and  _272
REMARK  111  A    between atoms: _275  and  _277
REMARK  112  A    between atoms: _277  and  _278
REMARK  113  A    between atoms: _277  and  _280
REMARK  114  A    between atoms: _280  and  _281
REMARK  115  A    between atoms: _281  and  _282
REMARK  116  A    between atoms: _282  and  _283
REMARK  117  A    between atoms: _283  and  _284
REMARK  118  A    between atoms: _288  and  _290
REMARK  119  A    between atoms: _290  and  _291
REMARK  120  A    between atoms: _290  and  _293
REMARK  121  A    between atoms: _293  and  _294
REMARK  122  A    between atoms: _297  and  _299
REMARK  123  A    between atoms: _299  and  _300
REMARK  124  A    between atoms: _299  and  _302
REMARK  125  A    between atoms: _302  and  _303
REMARK  126  A    between atoms: _308  and  _309
REMARK  127  A    between atoms: _311  and  _313
REMARK  128  A    between atoms: _313  and  _314
REMARK  129  A    between atoms: _313  and  _316
REMARK  130  A    between atoms: _316  and  _317
REMARK  131  A    between atoms: _320  and  _322
REMARK  132  A    between atoms: _322  and  _323
REMARK  133  A    between atoms: _322  and  _325
REMARK  134  A    between atoms: _327  and  _329
REMARK  135  A    between atoms: _329  and  _330
REMARK  136  A    between atoms: _333  and  _335
REMARK  137  A    between atoms: _335  and  _336
REMARK  138  A    between atoms: _335  and  _338
REMARK  139  A    between atoms: _338  and  _339
REMARK  140  A    between atoms: _339  and  _340
REMARK  141  A    between atoms: _340  and  _341
REMARK  142  A    between atoms: _341  and  _342
REMARK  143  A    between atoms: _346  and  _348
REMARK  144  A    between atoms: _348  and  _349
REMARK  145  A    between atoms: _348  and  _351
REMARK  146  A    between atoms: _351  and  _352
REMARK  147  A    between atoms: _355  and  _357
REMARK  148  A    between atoms: _357  and  _358
REMARK  149  A    between atoms: _361  and  _363
REMARK  150  A    between atoms: _363  and  _364
REMARK  151  A    between atoms: _363  and  _366
REMARK  152  A    between atoms: _366  and  _367
REMARK  153  A    between atoms: _367  and  _490
REMARK  154  A    between atoms: _368  and  _370
REMARK  155  A    between atoms: _370  and  _371
REMARK  156  A    between atoms: _370  and  _373
REMARK  157  A    between atoms: _373  and  _374
REMARK  158  A    between atoms: _374  and  _375
REMARK  159  A    between atoms: _375  and  _376
REMARK  160  A    between atoms: _376  and  _377
REMARK  161  A    between atoms: _381  and  _383
REMARK  162  A    between atoms: _383  and  _384
REMARK  163  A    between atoms: _386  and  _388
REMARK  164  A    between atoms: _388  and  _389
REMARK  165  A    between atoms: _388  and  _391
REMARK  166  A    between atoms: _391  and  _392
REMARK  167  A    between atoms: _395  and  _397
REMARK  168  A    between atoms: _397  and  _398
REMARK  169  A    between atoms: _397  and  _400
REMARK  170  A    between atoms: _400  and  _401
REMARK  171  A    between atoms: _403  and  _405
REMARK  172  A    between atoms: _405  and  _406
REMARK  173  A    between atoms: _408  and  _410
REMARK  174  A    between atoms: _410  and  _411
REMARK  175  A    between atoms: _413  and  _415
REMARK  176  A    between atoms: _415  and  _416
REMARK  177  A    between atoms: _415  and  _418
REMARK  178  A    between atoms: _418  and  _419
REMARK  179  A    between atoms: _422  and  _424
REMARK  180  A    between atoms: _424  and  _425
REMARK  181  A    between atoms: _424  and  _427
REMARK  182  A    between atoms: _427  and  _428
REMARK  183  A    between atoms: _431  and  _433
REMARK  184  A    between atoms: _433  and  _434
REMARK  185  A    between atoms: _433  and  _436
REMARK  186  A    between atoms: _436  and  _437
REMARK  187  A    between atoms: _440  and  _442
REMARK  188  A    between atoms: _442  and  _443
REMARK  189  A    between atoms: _442  and  _445
REMARK  190  A    between atoms: _445  and  _446
REMARK  191  A    between atoms: _448  and  _450
REMARK  192  A    between atoms: _450  and  _451
REMARK  193  A    between atoms: _450  and  _453
REMARK  194  A    between atoms: _453  and  _454
REMARK  195  A    between atoms: _464  and  _466
REMARK  196  A    between atoms: _466  and  _467
REMARK  197  A    between atoms: _469  and  _471
REMARK  198  A    between atoms: _471  and  _472
REMARK  199  A    between atoms: _471  and  _474
REMARK  200  A    between atoms: _474  and  _475
REMARK  201  A    between atoms: _475  and  _476
REMARK  202  A    between atoms: _479  and  _481
REMARK  203  A    between atoms: _481  and  _482
REMARK  204  A    between atoms: _484  and  _486
REMARK  205  A    between atoms: _486  and  _487
REMARK  206  A    between atoms: _486  and  _489
REMARK  207  A    between atoms: _489  and  _490
REMARK  208  A    between atoms: _491  and  _493
REMARK  209  A    between atoms: _493  and  _494
REMARK  210  A    between atoms: _497  and  _499
REMARK  211  A    between atoms: _499  and  _500
REMARK  212  A    between atoms: _499  and  _502
REMARK  213  A    between atoms: _502  and  _503
REMARK  214  A    between atoms: _503  and  _504
REMARK  215  A    between atoms: _509  and  _511
REMARK  216  A    between atoms: _511  and  _512
REMARK  217  A    between atoms: _511  and  _514
REMARK  218  A    between atoms: _514  and  _515
REMARK  219  A    between atoms: _515  and  _516
REMARK  220  A    between atoms: _516  and  _517
REMARK  221  A    between atoms: _527  and  _528
REMARK  222  A    between atoms: _533  and  _535
REMARK  223  A    between atoms: _535  and  _536
REMARK  224  A    between atoms: _538  and  _540
REMARK  225  A    between atoms: _540  and  _541
REMARK  226  A    between atoms: _540  and  _543
REMARK  227  A    between atoms: _546  and  _548
REMARK  228  A    between atoms: _548  and  _549
REMARK  229  A    between atoms: _548  and  _551
REMARK  230  A    between atoms: _551  and  _552
REMARK  231  A    between atoms: _557  and  _558
REMARK  232  A    between atoms: _560  and  _562
REMARK  233  A    between atoms: _562  and  _563
REMARK  234  A    between atoms: _562  and  _565
REMARK  235  A    between atoms: _565  and  _566
REMARK                            x       y       z     vdW  Elec       q    Type
REMARK                         _______ _______ _______ _____ _____    ______ ____
ROOT
ATOM      1  O   HOH     1      35.008 -10.972  25.569  0.00  0.00    +0.000 OA
ENDROOT
TORSDOF 0
REMARK  Name = ../refined-set-2016/5e2p/5e2p_pocket.pdb
REMARK  235 active torsions:
REMARK  status: ('A' for Active; 'I' for Inactive)
REMARK    1  A    between atoms: _1  and  _5
REMARK    2  A    between atoms: _5  and  _6
REMARK    3  A    between atoms: _5  and  _8
REMARK    4  A    between atoms: _8  and  _9
REMARK    5  A    between atoms: _12  and  _14
REMARK    6  A    between atoms: _14  and  _15
REMARK    7  A    between atoms: _14  and  _17
REMARK    8  A    between atoms: _20  and  _22
REMARK    9  A    between atoms: _22  and  _23
REMARK   10  A    between atoms: _22  and  _25
REMARK   11  A    between atoms: _25  and  _26
REMARK   12  A    between atoms: _29  and  _31
REMARK   13  A    between atoms: _31  and  _32
REMARK   14  A    between atoms: _31  and  _34
REMARK   15  A    between atoms: _34  and  _35
REMARK   16  A    between atoms: _38  and  _40
REMARK   17  A    between atoms: _40  and  _41
REMARK   18  A    between atoms: _40  and  _43
REMARK   19  A    between atoms: _43  and  _44
REMARK   20  A    between atoms: _47  and  _49
REMARK   21  A    between atoms: _49  and  _50
REMARK   22  A    between atoms: _49  and  _52
REMARK   23  A    between atoms: _52  and  _53
REMARK   24  A    between atoms: _56  and  _58
REMARK   25  A    between atoms: _58  and  _59
REMARK   26  A    between atoms: _58  and  _61
REMARK   27  A    between atoms: _61  and  _62
REMARK   28  A    between atoms: _62  and  _63
REMARK   29  A    between atoms: _68  and  _70
REMARK   30  A    between atoms: _70  and  _71
REMARK   31  A    between atoms: _70  and  _73
REMARK   32  A    between atoms: _73  and  _74
REMARK   33  A    between atoms: _74  and  _75
REMARK   34  A    between atoms: _75  and  _76
REMARK   35  A    between atoms: _85  and  _87
REMARK   36  A    between atoms: _87  and  _88
REMARK   37  A    between atoms: _87  and  _90
REMARK   38  A    between atoms: _90  and  _91
REMARK   39  A    between atoms: _96  and  _98
REMARK   40  A    between atoms: _98  and  _99
REMARK   41  A    between atoms: _98  and  _101
REMARK   42  A    between atoms: _101  and  _102
REMARK   43  A    between atoms: _105  and  _107
REMARK   44  A    between atoms: _107  and  _108
REMARK   45  A    between atoms: _107  and  _110
REMARK   46  A    between atoms: _110  and  _111
REMARK   47  A    between atoms: _111  and  _146
REMARK   48  A    between atoms: _112  and  _114
REMARK   49  A    between atoms: _114  and  _115
REMARK   50  A    between atoms: _117  and  _119
REMARK   51  A    between atoms: _119  and  _120
REMARK   52  A    between atoms: _123  and  _125
REMARK   53  A    between atoms: _125  and  _126
REMARK   54  A    between atoms: _129  and  _131
REMARK   55  A    between atoms: _131  and  _132
REMARK   56  A    between atoms: _131  and  _134
REMARK   57  A    between atoms: _134  and  _135
REMARK   58  A    between atoms: _140  and  _142
REMARK   59  A    between atoms: _142  and  _143
REMARK   60  A    between atoms: _142  and  _145
REMARK   61  A    between atoms: _145  and  _146
REMARK   62  A    between atoms: _147  and  _149
REMARK   63  A    between atoms: _149  and  _150
REMARK   64  A    between atoms: _149  and  _152
REMARK   65  A    between atoms: _152  and  _153
REMARK   66  A    between atoms: _159  and  _161
REMARK   67  A    between atoms: _161  and  _162
REMARK   68  A    between atoms: _161  and  _164
REMARK   69  A    between atoms: _164  and  _165
REMARK   70  A    between atoms: _170  and  _171
REMARK   71  A    between atoms: _173  and  _175
REMARK   72  A    between atoms: _175  and  _176
REMARK   73  A    between atoms: _178  and  _180
REMARK   74  A    between atoms: _180  and  _181
REMARK   75  A    between atoms: _180  and  _183
REMARK   76  A    between atoms: _186  and  _188
REMARK   77  A    between atoms: _188  and  _189
REMARK   78  A    between atoms: _192  and  _194
REMARK   79  A    between atoms: _194  and  _195
REMARK   80  A    between atoms: _194  and  _197
REMARK   81  A    between atoms: _197  and  _198
REMARK   82  A    between atoms: _201  and  _203
REMARK   83  A    between atoms: _203  and  _204
REMARK   84  A    between atoms: _203  and  _206
REMARK   85  A    between atoms: _209  and  _211
REMARK   86  A    between atoms: _211  and  _212
REMARK   87  A    between atoms: _211  and  _214
REMARK   88  A    between atoms: _214  and  _215
REMARK   89  A    between atoms: _225  and  _227
REMARK   90  A    between atoms: _227  and  _228
REMARK   91  A    between atoms: _230  and  _232
REMARK   92  A    between atoms: _232  and  _233
REMARK   93  A    between atoms: _232  and  _235
REMARK   94  A    between atoms: _235  and  _236
REMARK   95  A    between atoms: _241  and  _242
REMARK   96  A    between atoms: _244  and  _246
REMARK   97  A    between atoms: _246  and  _247
REMARK   98  A    between atoms: _246  and  _249
REMARK   99  A    between atoms: _249  and  _250
REMARK  100  A    between atoms: _250  and  _251
REMARK  101  A    between atoms: _251  and  _252
REMARK  102  A    between atoms: _252  and  _253
REMARK  103  A    between atoms: _257  and  _259
REMARK  104  A    between atoms: _259  and  _260
REMARK  105  A    between atoms: _259  and  _262
REMARK  106  A    between atoms: _262  and  _263
REMARK  107  A    between atoms: _266  and  _268
REMARK  108  A    between atoms: _268  and  _269
REMARK  109  A    between atoms: _268  and  _271
REMARK  110  A    between atoms: _271  and  _272
REMARK  111  A    between atoms: _275  and  _277
REMARK  112  A    between atoms: _277  and  _278
REMARK  113  A    between atoms: _277  and  _280
REMARK  114  A    between atoms: _280  and  _281
REMARK  115  A    between atoms: _281  and  _282
REMARK  116  A    between atoms: _282  and  _283
REMARK  117  A    between atoms: _283  and  _284
REMARK  118  A    between atoms: _288  and  _290
REMARK  119  A    between atoms: _290  and  _291
REMARK  120  A    between atoms: _290  and  _293
REMARK  121  A    between atoms: _293  and  _294
REMARK  122  A    between atoms: _297  and  _299
REMARK  123  A    between atoms: _299  and  _300
REMARK  124  A    between atoms: _299  and  _302
REMARK  125  A    between atoms: _302  and  _303
REMARK  126  A    between atoms: _308  and  _309
REMARK  127  A    between atoms: _311  and  _313
REMARK  128  A    between atoms: _313  and  _314
REMARK  129  A    between atoms: _313  and  _316
REMARK  130  A    between atoms: _316  and  _317
REMARK  131  A    between atoms: _320  and  _322
REMARK  132  A    between atoms: _322  and  _323
REMARK  133  A    between atoms: _322  and  _325
REMARK  134  A    between atoms: _327  and  _329
REMARK  135  A    between atoms: _329  and  _330
REMARK  136  A    between atoms: _333  and  _335
REMARK  137  A    between atoms: _335  and  _336
REMARK  138  A    between atoms: _335  and  _338
REMARK  139  A    between atoms: _338  and  _339
REMARK  140  A    between atoms: _339  and  _340
REMARK  141  A    between atoms: _340  and  _341
REMARK  142  A    between atoms: _341  and  _342
REMARK  143  A    between atoms: _346  and  _348
REMARK  144  A    between atoms: _348  and  _349
REMARK  145  A    between atoms: _348  and  _351
REMARK  146  A    between atoms: _351  and  _352
REMARK  147  A    between atoms: _355  and  _357
REMARK  148  A    between atoms: _357  and  _358
REMARK  149  A    between atoms: _361  and  _363
REMARK  150  A    between atoms: _363  and  _364
REMARK  151  A    between atoms: _363  and  _366
REMARK  152  A    between atoms: _366  and  _367
REMARK  153  A    between atoms: _367  and  _490
REMARK  154  A    between atoms: _368  and  _370
REMARK  155  A    between atoms: _370  and  _371
REMARK  156  A    between atoms: _370  and  _373
REMARK  157  A    between atoms: _373  and  _374
REMARK  158  A    between atoms: _374  and  _375
REMARK  159  A    between atoms: _375  and  _376
REMARK  160  A    between atoms: _376  and  _377
REMARK  161  A    between atoms: _381  and  _383
REMARK  162  A    between atoms: _383  and  _384
REMARK  163  A    between atoms: _386  and  _388
REMARK  164  A    between atoms: _388  and  _389
REMARK  165  A    between atoms: _388  and  _391
REMARK  166  A    between atoms: _391  and  _392
REMARK  167  A    between atoms: _395  and  _397
REMARK  168  A    between atoms: _397  and  _398
REMARK  169  A    between atoms: _397  and  _400
REMARK  170  A    between atoms: _400  and  _401
REMARK  171  A    between atoms: _403  and  _405
REMARK  172  A    between atoms: _405  and  _406
REMARK  173  A    between atoms: _408  and  _410
REMARK  174  A    between atoms: _410  and  _411
REMARK  175  A    between atoms: _413  and  _415
REMARK  176  A    between atoms: _415  and  _416
REMARK  177  A    between atoms: _415  and  _418
REMARK  178  A    between atoms: _418  and  _419
REMARK  179  A    between atoms: _422  and  _424
REMARK  180  A    between atoms: _424  and  _425
REMARK  181  A    between atoms: _424  and  _427
REMARK  182  A    between atoms: _427  and  _428
REMARK  183  A    between atoms: _431  and  _433
REMARK  184  A    between atoms: _433  and  _434
REMARK  185  A    between atoms: _433  and  _436
REMARK  186  A    between atoms: _436  and  _437
REMARK  187  A    between atoms: _440  and  _442
REMARK  188  A    between atoms: _442  and  _443
REMARK  189  A    between atoms: _442  and  _445
REMARK  190  A    between atoms: _445  and  _446
REMARK  191  A    between atoms: _448  and  _450
REMARK  192  A    between atoms: _450  and  _451
REMARK  193  A    between atoms: _450  and  _453
REMARK  194  A    between atoms: _453  and  _454
REMARK  195  A    between atoms: _464  and  _466
REMARK  196  A    between atoms: _466  and  _467
REMARK  197  A    between atoms: _469  and  _471
REMARK  198  A    between atoms: _471  and  _472
REMARK  199  A    between atoms: _471  and  _474
REMARK  200  A    between atoms: _474  and  _475
REMARK  201  A    between atoms: _475  and  _476
REMARK  202  A    between atoms: _479  and  _481
REMARK  203  A    between atoms: _481  and  _482
REMARK  204  A    between atoms: _484  and  _486
REMARK  205  A    between atoms: _486  and  _487
REMARK  206  A    between atoms: _486  and  _489
REMARK  207  A    between atoms: _489  and  _490
REMARK  208  A    between atoms: _491  and  _493
REMARK  209  A    between atoms: _493  and  _494
REMARK  210  A    between atoms: _497  and  _499
REMARK  211  A    between atoms: _499  and  _500
REMARK  212  A    between atoms: _499  and  _502
REMARK  213  A    between atoms: _502  and  _503
REMARK  214  A    between atoms: _503  and  _504
REMARK  215  A    between atoms: _509  and  _511
REMARK  216  A    between atoms: _511  and  _512
REMARK  217  A    between atoms: _511  and  _514
REMARK  218  A    between atoms: _514  and  _515
REMARK  219  A    between atoms: _515  and  _516
REMARK  220  A    between atoms: _516  and  _517
REMARK  221  A    between atoms: _527  and  _528
REMARK  222  A    between atoms: _533  and  _535
REMARK  223  A    between atoms: _535  and  _536
REMARK  224  A    between atoms: _538  and  _540
REMARK  225  A    between atoms: _540  and  _541
REMARK  226  A    between atoms: _540  and  _543
REMARK  227  A    between atoms: _546  and  _548
REMARK  228  A    between atoms: _548  and  _549
REMARK  229  A    between atoms: _548  and  _551
REMARK  230  A    between atoms: _551  and  _552
REMARK  231  A    between atoms: _557  and  _558
REMARK  232  A    between atoms: _560  and  _562
REMARK  233  A    between atoms: _562  and  _563
REMARK  234  A    between atoms: _562  and  _565
REMARK  235  A    between atoms: _565  and  _566
REMARK                            x       y       z     vdW  Elec       q    Type
REMARK                         _______ _______ _______ _____ _____    ______ ____
ROOT
ATOM      1  O   HOH     1      37.973 -25.993  26.580  0.00  0.00    +0.000 OA
ENDROOT
TORSDOF 0
REMARK  Name = ../refined-set-2016/5e2p/5e2p_pocket.pdb
REMARK  235 active torsions:
REMARK  status: ('A' for Active; 'I' for Inactive)
REMARK    1  A    between atoms: _1  and  _5
REMARK    2  A    between atoms: _5  and  _6
REMARK    3  A    between atoms: _5  and  _8
REMARK    4  A    between atoms: _8  and  _9
REMARK    5  A    between atoms: _12  and  _14
REMARK    6  A    between atoms: _14  and  _15
REMARK    7  A    between atoms: _14  and  _17
REMARK    8  A    between atoms: _20  and  _22
REMARK    9  A    between atoms: _22  and  _23
REMARK   10  A    between atoms: _22  and  _25
REMARK   11  A    between atoms: _25  and  _26
REMARK   12  A    between atoms: _29  and  _31
REMARK   13  A    between atoms: _31  and  _32
REMARK   14  A    between atoms: _31  and  _34
REMARK   15  A    between atoms: _34  and  _35
REMARK   16  A    between atoms: _38  and  _40
REMARK   17  A    between atoms: _40  and  _41
REMARK   18  A    between atoms: _40  and  _43
REMARK   19  A    between atoms: _43  and  _44
REMARK   20  A    between atoms: _47  and  _49
REMARK   21  A    between atoms: _49  and  _50
REMARK   22  A    between atoms: _49  and  _52
REMARK   23  A    between atoms: _52  and  _53
REMARK   24  A    between atoms: _56  and  _58
REMARK   25  A    between atoms: _58  and  _59
REMARK   26  A    between atoms: _58  and  _61
REMARK   27  A    between atoms: _61  and  _62
REMARK   28  A    between atoms: _62  and  _63
REMARK   29  A    between atoms: _68  and  _70
REMARK   30  A    between atoms: _70  and  _71
REMARK   31  A    between atoms: _70  and  _73
REMARK   32  A    between atoms: _73  and  _74
REMARK   33  A    between atoms: _74  and  _75
REMARK   34  A    between atoms: _75  and  _76
REMARK   35  A    between atoms: _85  and  _87
REMARK   36  A    between atoms: _87  and  _88
REMARK   37  A    between atoms: _87  and  _90
REMARK   38  A    between atoms: _90  and  _91
REMARK   39  A    between atoms: _96  and  _98
REMARK   40  A    between atoms: _98  and  _99
REMARK   41  A    between atoms: _98  and  _101
REMARK   42  A    between atoms: _101  and  _102
REMARK   43  A    between atoms: _105  and  _107
REMARK   44  A    between atoms: _107  and  _108
REMARK   45  A    between atoms: _107  and  _110
REMARK   46  A    between atoms: _110  and  _111
REMARK   47  A    between atoms: _111  and  _146
REMARK   48  A    between atoms: _112  and  _114
REMARK   49  A    between atoms: _114  and  _115
REMARK   50  A    between atoms: _117  and  _119
REMARK   51  A    between atoms: _119  and  _120
REMARK   52  A    between atoms: _123  and  _125
REMARK   53  A    between atoms: _125  and  _126
REMARK   54  A    between atoms: _129  and  _131
REMARK   55  A    between atoms: _131  and  _132
REMARK   56  A    between atoms: _131  and  _134
REMARK   57  A    between atoms: _134  and  _135
REMARK   58  A    between atoms: _140  and  _142
REMARK   59  A    between atoms: _142  and  _143
REMARK   60  A    between atoms: _142  and  _145
REMARK   61  A    between atoms: _145  and  _146
REMARK   62  A    between atoms: _147  and  _149
REMARK   63  A    between atoms: _149  and  _150
REMARK   64  A    between atoms: _149  and  _152
REMARK   65  A    between atoms: _152  and  _153
REMARK   66  A    between atoms: _159  and  _161
REMARK   67  A    between atoms: _161  and  _162
REMARK   68  A    between atoms: _161  and  _164
REMARK   69  A    between atoms: _164  and  _165
REMARK   70  A    between atoms: _170  and  _171
REMARK   71  A    between atoms: _173  and  _175
REMARK   72  A    between atoms: _175  and  _176
REMARK   73  A    between atoms: _178  and  _180
REMARK   74  A    between atoms: _180  and  _181
REMARK   75  A    between atoms: _180  and  _183
REMARK   76  A    between atoms: _186  and  _188
REMARK   77  A    between atoms: _188  and  _189
REMARK   78  A    between atoms: _192  and  _194
REMARK   79  A    between atoms: _194  and  _195
REMARK   80  A    between atoms: _194  and  _197
REMARK   81  A    between atoms: _197  and  _198
REMARK   82  A    between atoms: _201  and  _203
REMARK   83  A    between atoms: _203  and  _204
REMARK   84  A    between atoms: _203  and  _206
REMARK   85  A    between atoms: _209  and  _211
REMARK   86  A    between atoms: _211  and  _212
REMARK   87  A    between atoms: _211  and  _214
REMARK   88  A    between atoms: _214  and  _215
REMARK   89  A    between atoms: _225  and  _227
REMARK   90  A    between atoms: _227  and  _228
REMARK   91  A    between atoms: _230  and  _232
REMARK   92  A    between atoms: _232  and  _233
REMARK   93  A    between atoms: _232  and  _235
REMARK   94  A    between atoms: _235  and  _236
REMARK   95  A    between atoms: _241  and  _242
REMARK   96  A    between atoms: _244  and  _246
REMARK   97  A    between atoms: _246  and  _247
REMARK   98  A    between atoms: _246  and  _249
REMARK   99  A    between atoms: _249  and  _250
REMARK  100  A    between atoms: _250  and  _251
REMARK  101  A    between atoms: _251  and  _252
REMARK  102  A    between atoms: _252  and  _253
REMARK  103  A    between atoms: _257  and  _259
REMARK  104  A    between atoms: _259  and  _260
REMARK  105  A    between atoms: _259  and  _262
REMARK  106  A    between atoms: _262  and  _263
REMARK  107  A    between atoms: _266  and  _268
REMARK  108  A    between atoms: _268  and  _269
REMARK  109  A    between atoms: _268  and  _271
REMARK  110  A    between atoms: _271  and  _272
REMARK  111  A    between atoms: _275  and  _277
REMARK  112  A    between atoms: _277  and  _278
REMARK  113  A    between atoms: _277  and  _280
REMARK  114  A    between atoms: _280  and  _281
REMARK  115  A    between atoms: _281  and  _282
REMARK  116  A    between atoms: _282  and  _283
REMARK  117  A    between atoms: _283  and  _284
REMARK  118  A    between atoms: _288  and  _290
REMARK  119  A    between atoms: _290  and  _291
REMARK  120  A    between atoms: _290  and  _293
REMARK  121  A    between atoms: _293  and  _294
REMARK  122  A    between atoms: _297  and  _299
REMARK  123  A    between atoms: _299  and  _300
REMARK  124  A    between atoms: _299  and  _302
REMARK  125  A    between atoms: _302  and  _303
REMARK  126  A    between atoms: _308  and  _309
REMARK  127  A    between atoms: _311  and  _313
REMARK  128  A    between atoms: _313  and  _314
REMARK  129  A    between atoms: _313  and  _316
REMARK  130  A    between atoms: _316  and  _317
REMARK  131  A    between atoms: _320  and  _322
REMARK  132  A    between atoms: _322  and  _323
REMARK  133  A    between atoms: _322  and  _325
REMARK  134  A    between atoms: _327  and  _329
REMARK  135  A    between atoms: _329  and  _330
REMARK  136  A    between atoms: _333  and  _335
REMARK  137  A    between atoms: _335  and  _336
REMARK  138  A    between atoms: _335  and  _338
REMARK  139  A    between atoms: _338  and  _339
REMARK  140  A    between atoms: _339  and  _340
REMARK  141  A    between atoms: _340  and  _341
REMARK  142  A    between atoms: _341  and  _342
REMARK  143  A    between atoms: _346  and  _348
REMARK  144  A    between atoms: _348  and  _349
REMARK  145  A    between atoms: _348  and  _351
REMARK  146  A    between atoms: _351  and  _352
REMARK  147  A    between atoms: _355  and  _357
REMARK  148  A    between atoms: _357  and  _358
REMARK  149  A    between atoms: _361  and  _363
REMARK  150  A    between atoms: _363  and  _364
REMARK  151  A    between atoms: _363  and  _366
REMARK  152  A    between atoms: _366  and  _367
REMARK  153  A    between atoms: _367  and  _490
REMARK  154  A    between atoms: _368  and  _370
REMARK  155  A    between atoms: _370  and  _371
REMARK  156  A    between atoms: _370  and  _373
REMARK  157  A    between atoms: _373  and  _374
REMARK  158  A    between atoms: _374  and  _375
REMARK  159  A    between atoms: _375  and  _376
REMARK  160  A    between atoms: _376  and  _377
REMARK  161  A    between atoms: _381  and  _383
REMARK  162  A    between atoms: _383  and  _384
REMARK  163  A    between atoms: _386  and  _388
REMARK  164  A    between atoms: _388  and  _389
REMARK  165  A    between atoms: _388  and  _391
REMARK  166  A    between atoms: _391  and  _392
REMARK  167  A    between atoms: _395  and  _397
REMARK  168  A    between atoms: _397  and  _398
REMARK  169  A    between atoms: _397  and  _400
REMARK  170  A    between atoms: _400  and  _401
REMARK  171  A    between atoms: _403  and  _405
REMARK  172  A    between atoms: _405  and  _406
REMARK  173  A    between atoms: _408  and  _410
REMARK  174  A    between atoms: _410  and  _411
REMARK  175  A    between atoms: _413  and  _415
REMARK  176  A    between atoms: _415  and  _416
REMARK  177  A    between atoms: _415  and  _418
REMARK  178  A    between atoms: _418  and  _419
REMARK  179  A    between atoms: _422  and  _424
REMARK  180  A    between atoms: _424  and  _425
REMARK  181  A    between atoms: _424  and  _427
REMARK  182  A    between atoms: _427  and  _428
REMARK  183  A    between atoms: _431  and  _433
REMARK  184  A    between atoms: _433  and  _434
REMARK  185  A    between atoms: _433  and  _436
REMARK  186  A    between atoms: _436  and  _437
REMARK  187  A    between atoms: _440  and  _442
REMARK  188  A    between atoms: _442  and  _443
REMARK  189  A    between atoms: _442  and  _445
REMARK  190  A    between atoms: _445  and  _446
REMARK  191  A    between atoms: _448  and  _450
REMARK  192  A    between atoms: _450  and  _451
REMARK  193  A    between atoms: _450  and  _453
REMARK  194  A    between atoms: _453  and  _454
REMARK  195  A    between atoms: _464  and  _466
REMARK  196  A    between atoms: _466  and  _467
REMARK  197  A    between atoms: _469  and  _471
REMARK  198  A    between atoms: _471  and  _472
REMARK  199  A    between atoms: _471  and  _474
REMARK  200  A    between atoms: _474  and  _475
REMARK  201  A    between atoms: _475  and  _476
REMARK  202  A    between atoms: _479  and  _481
REMARK  203  A    between atoms: _481  and  _482
REMARK  204  A    between atoms: _484  and  _486
REMARK  205  A    between atoms: _486  and  _487
REMARK  206  A    between atoms: _486  and  _489
REMARK  207  A    between atoms: _489  and  _490
REMARK  208  A    between atoms: _491  and  _493
REMARK  209  A    between atoms: _493  and  _494
REMARK  210  A    between atoms: _497  and  _499
REMARK  211  A    between atoms: _499  and  _500
REMARK  212  A    between atoms: _499  and  _502
REMARK  213  A    between atoms: _502  and  _503
REMARK  214  A    between atoms: _503  and  _504
REMARK  215  A    between atoms: _509  and  _511
REMARK  216  A    between atoms: _511  and  _512
REMARK  217  A    between atoms: _511  and  _514
REMARK  218  A    between atoms: _514  and  _515
REMARK  219  A    between atoms: _515  and  _516
REMARK  220  A    between atoms: _516  and  _517
REMARK  221  A    between atoms: _527  and  _528
REMARK  222  A    between atoms: _533  and  _535
REMARK  223  A    between atoms: _535  and  _536
REMARK  224  A    between atoms: _538  and  _540
REMARK  225  A    between atoms: _540  and  _541
REMARK  226  A    between atoms: _540  and  _543
REMARK  227  A    between atoms: _546  and  _548
REMARK  228  A    between atoms: _548  and  _549
REMARK  229  A    between atoms: _548  and  _551
REMARK  230  A    between atoms: _551  and  _552
REMARK  231  A    between atoms: _557  and  _558
REMARK  232  A    between atoms: _560  and  _562
REMARK  233  A    between atoms: _562  and  _563
REMARK  234  A    between atoms: _562  and  _565
REMARK  235  A    between atoms: _565  and  _566
REMARK                            x       y       z     vdW  Elec       q    Type
REMARK                         _______ _______ _______ _____ _____    ______ ____
ROOT
ATOM      1  O   HOH     1      40.699 -21.264  32.473  0.00  0.00    +0.000 OA
ENDROOT
TORSDOF 0
REMARK  Name = ../refined-set-2016/5e2p/5e2p_pocket.pdb
REMARK  235 active torsions:
REMARK  status: ('A' for Active; 'I' for Inactive)
REMARK    1  A    between atoms: _1  and  _5
REMARK    2  A    between atoms: _5  and  _6
REMARK    3  A    between atoms: _5  and  _8
REMARK    4  A    between atoms: _8  and  _9
REMARK    5  A    between atoms: _12  and  _14
REMARK    6  A    between atoms: _14  and  _15
REMARK    7  A    between atoms: _14  and  _17
REMARK    8  A    between atoms: _20  and  _22
REMARK    9  A    between atoms: _22  and  _23
REMARK   10  A    between atoms: _22  and  _25
REMARK   11  A    between atoms: _25  and  _26
REMARK   12  A    between atoms: _29  and  _31
REMARK   13  A    between atoms: _31  and  _32
REMARK   14  A    between atoms: _31  and  _34
REMARK   15  A    between atoms: _34  and  _35
REMARK   16  A    between atoms: _38  and  _40
REMARK   17  A    between atoms: _40  and  _41
REMARK   18  A    between atoms: _40  and  _43
REMARK   19  A    between atoms: _43  and  _44
REMARK   20  A    between atoms: _47  and  _49
REMARK   21  A    between atoms: _49  and  _50
REMARK   22  A    between atoms: _49  and  _52
REMARK   23  A    between atoms: _52  and  _53
REMARK   24  A    between atoms: _56  and  _58
REMARK   25  A    between atoms: _58  and  _59
REMARK   26  A    between atoms: _58  and  _61
REMARK   27  A    between atoms: _61  and  _62
REMARK   28  A    between atoms: _62  and  _63
REMARK   29  A    between atoms: _68  and  _70
REMARK   30  A    between atoms: _70  and  _71
REMARK   31  A    between atoms: _70  and  _73
REMARK   32  A    between atoms: _73  and  _74
REMARK   33  A    between atoms: _74  and  _75
REMARK   34  A    between atoms: _75  and  _76
REMARK   35  A    between atoms: _85  and  _87
REMARK   36  A    between atoms: _87  and  _88
REMARK   37  A    between atoms: _87  and  _90
REMARK   38  A    between atoms: _90  and  _91
REMARK   39  A    between atoms: _96  and  _98
REMARK   40  A    between atoms: _98  and  _99
REMARK   41  A    between atoms: _98  and  _101
REMARK   42  A    between atoms: _101  and  _102
REMARK   43  A    between atoms: _105  and  _107
REMARK   44  A    between atoms: _107  and  _108
REMARK   45  A    between atoms: _107  and  _110
REMARK   46  A    between atoms: _110  and  _111
REMARK   47  A    between atoms: _111  and  _146
REMARK   48  A    between atoms: _112  and  _114
REMARK   49  A    between atoms: _114  and  _115
REMARK   50  A    between atoms: _117  and  _119
REMARK   51  A    between atoms: _119  and  _120
REMARK   52  A    between atoms: _123  and  _125
REMARK   53  A    between atoms: _125  and  _126
REMARK   54  A    between atoms: _129  and  _131
REMARK   55  A    between atoms: _131  and  _132
REMARK   56  A    between atoms: _131  and  _134
REMARK   57  A    between atoms: _134  and  _135
REMARK   58  A    between atoms: _140  and  _142
REMARK   59  A    between atoms: _142  and  _143
REMARK   60  A    between atoms: _142  and  _145
REMARK   61  A    between atoms: _145  and  _146
REMARK   62  A    between atoms: _147  and  _149
REMARK   63  A    between atoms: _149  and  _150
REMARK   64  A    between atoms: _149  and  _152
REMARK   65  A    between atoms: _152  and  _153
REMARK   66  A    between atoms: _159  and  _161
REMARK   67  A    between atoms: _161  and  _162
REMARK   68  A    between atoms: _161  and  _164
REMARK   69  A    between atoms: _164  and  _165
REMARK   70  A    between atoms: _170  and  _171
REMARK   71  A    between atoms: _173  and  _175
REMARK   72  A    between atoms: _175  and  _176
REMARK   73  A    between atoms: _178  and  _180
REMARK   74  A    between atoms: _180  and  _181
REMARK   75  A    between atoms: _180  and  _183
REMARK   76  A    between atoms: _186  and  _188
REMARK   77  A    between atoms: _188  and  _189
REMARK   78  A    between atoms: _192  and  _194
REMARK   79  A    between atoms: _194  and  _195
REMARK   80  A    between atoms: _194  and  _197
REMARK   81  A    between atoms: _197  and  _198
REMARK   82  A    between atoms: _201  and  _203
REMARK   83  A    between atoms: _203  and  _204
REMARK   84  A    between atoms: _203  and  _206
REMARK   85  A    between atoms: _209  and  _211
REMARK   86  A    between atoms: _211  and  _212
REMARK   87  A    between atoms: _211  and  _214
REMARK   88  A    between atoms: _214  and  _215
REMARK   89  A    between atoms: _225  and  _227
REMARK   90  A    between atoms: _227  and  _228
REMARK   91  A    between atoms: _230  and  _232
REMARK   92  A    between atoms: _232  and  _233
REMARK   93  A    between atoms: _232  and  _235
REMARK   94  A    between atoms: _235  and  _236
REMARK   95  A    between atoms: _241  and  _242
REMARK   96  A    between atoms: _244  and  _246
REMARK   97  A    between atoms: _246  and  _247
REMARK   98  A    between atoms: _246  and  _249
REMARK   99  A    between atoms: _249  and  _250
REMARK  100  A    between atoms: _250  and  _251
REMARK  101  A    between atoms: _251  and  _252
REMARK  102  A    between atoms: _252  and  _253
REMARK  103  A    between atoms: _257  and  _259
REMARK  104  A    between atoms: _259  and  _260
REMARK  105  A    between atoms: _259  and  _262
REMARK  106  A    between atoms: _262  and  _263
REMARK  107  A    between atoms: _266  and  _268
REMARK  108  A    between atoms: _268  and  _269
REMARK  109  A    between atoms: _268  and  _271
REMARK  110  A    between atoms: _271  and  _272
REMARK  111  A    between atoms: _275  and  _277
REMARK  112  A    between atoms: _277  and  _278
REMARK  113  A    between atoms: _277  and  _280
REMARK  114  A    between atoms: _280  and  _281
REMARK  115  A    between atoms: _281  and  _282
REMARK  116  A    between atoms: _282  and  _283
REMARK  117  A    between atoms: _283  and  _284
REMARK  118  A    between atoms: _288  and  _290
REMARK  119  A    between atoms: _290  and  _291
REMARK  120  A    between atoms: _290  and  _293
REMARK  121  A    between atoms: _293  and  _294
REMARK  122  A    between atoms: _297  and  _299
REMARK  123  A    between atoms: _299  and  _300
REMARK  124  A    between atoms: _299  and  _302
REMARK  125  A    between atoms: _302  and  _303
REMARK  126  A    between atoms: _308  and  _309
REMARK  127  A    between atoms: _311  and  _313
REMARK  128  A    between atoms: _313  and  _314
REMARK  129  A    between atoms: _313  and  _316
REMARK  130  A    between atoms: _316  and  _317
REMARK  131  A    between atoms: _320  and  _322
REMARK  132  A    between atoms: _322  and  _323
REMARK  133  A    between atoms: _322  and  _325
REMARK  134  A    between atoms: _327  and  _329
REMARK  135  A    between atoms: _329  and  _330
REMARK  136  A    between atoms: _333  and  _335
REMARK  137  A    between atoms: _335  and  _336
REMARK  138  A    between atoms: _335  and  _338
REMARK  139  A    between atoms: _338  and  _339
REMARK  140  A    between atoms: _339  and  _340
REMARK  141  A    between atoms: _340  and  _341
REMARK  142  A    between atoms: _341  and  _342
REMARK  143  A    between atoms: _346  and  _348
REMARK  144  A    between atoms: _348  and  _349
REMARK  145  A    between atoms: _348  and  _351
REMARK  146  A    between atoms: _351  and  _352
REMARK  147  A    between atoms: _355  and  _357
REMARK  148  A    between atoms: _357  and  _358
REMARK  149  A    between atoms: _361  and  _363
REMARK  150  A    between atoms: _363  and  _364
REMARK  151  A    between atoms: _363  and  _366
REMARK  152  A    between atoms: _366  and  _367
REMARK  153  A    between atoms: _367  and  _490
REMARK  154  A    between atoms: _368  and  _370
REMARK  155  A    between atoms: _370  and  _371
REMARK  156  A    between atoms: _370  and  _373
REMARK  157  A    between atoms: _373  and  _374
REMARK  158  A    between atoms: _374  and  _375
REMARK  159  A    between atoms: _375  and  _376
REMARK  160  A    between atoms: _376  and  _377
REMARK  161  A    between atoms: _381  and  _383
REMARK  162  A    between atoms: _383  and  _384
REMARK  163  A    between atoms: _386  and  _388
REMARK  164  A    between atoms: _388  and  _389
REMARK  165  A    between atoms: _388  and  _391
REMARK  166  A    between atoms: _391  and  _392
REMARK  167  A    between atoms: _395  and  _397
REMARK  168  A    between atoms: _397  and  _398
REMARK  169  A    between atoms: _397  and  _400
REMARK  170  A    between atoms: _400  and  _401
REMARK  171  A    between atoms: _403  and  _405
REMARK  172  A    between atoms: _405  and  _406
REMARK  173  A    between atoms: _408  and  _410
REMARK  174  A    between atoms: _410  and  _411
REMARK  175  A    between atoms: _413  and  _415
REMARK  176  A    between atoms: _415  and  _416
REMARK  177  A    between atoms: _415  and  _418
REMARK  178  A    between atoms: _418  and  _419
REMARK  179  A    between atoms: _422  and  _424
REMARK  180  A    between atoms: _424  and  _425
REMARK  181  A    between atoms: _424  and  _427
REMARK  182  A    between atoms: _427  and  _428
REMARK  183  A    between atoms: _431  and  _433
REMARK  184  A    between atoms: _433  and  _434
REMARK  185  A    between atoms: _433  and  _436
REMARK  186  A    between atoms: _436  and  _437
REMARK  187  A    between atoms: _440  and  _442
REMARK  188  A    between atoms: _442  and  _443
REMARK  189  A    between atoms: _442  and  _445
REMARK  190  A    between atoms: _445  and  _446
REMARK  191  A    between atoms: _448  and  _450
REMARK  192  A    between atoms: _450  and  _451
REMARK  193  A    between atoms: _450  and  _453
REMARK  194  A    between atoms: _453  and  _454
REMARK  195  A    between atoms: _464  and  _466
REMARK  196  A    between atoms: _466  and  _467
REMARK  197  A    between atoms: _469  and  _471
REMARK  198  A    between atoms: _471  and  _472
REMARK  199  A    between atoms: _471  and  _474
REMARK  200  A    between atoms: _474  and  _475
REMARK  201  A    between atoms: _475  and  _476
REMARK  202  A    between atoms: _479  and  _481
REMARK  203  A    between atoms: _481  and  _482
REMARK  204  A    between atoms: _484  and  _486
REMARK  205  A    between atoms: _486  and  _487
REMARK  206  A    between atoms: _486  and  _489
REMARK  207  A    between atoms: _489  and  _490
REMARK  208  A    between atoms: _491  and  _493
REMARK  209  A    between atoms: _493  and  _494
REMARK  210  A    between atoms: _497  and  _499
REMARK  211  A    between atoms: _499  and  _500
REMARK  212  A    between atoms: _499  and  _502
REMARK  213  A    between atoms: _502  and  _503
REMARK  214  A    between atoms: _503  and  _504
REMARK  215  A    between atoms: _509  and  _511
REMARK  216  A    between atoms: _511  and  _512
REMARK  217  A    between atoms: _511  and  _514
REMARK  218  A    between atoms: _514  and  _515
REMARK  219  A    between atoms: _515  and  _516
REMARK  220  A    between atoms: _516  and  _517
REMARK  221  A    between atoms: _527  and  _528
REMARK  222  A    between atoms: _533  and  _535
REMARK  223  A    between atoms: _535  and  _536
REMARK  224  A    between atoms: _538  and  _540
REMARK  225  A    between atoms: _540  and  _541
REMARK  226  A    between atoms: _540  and  _543
REMARK  227  A    between atoms: _546  and  _548
REMARK  228  A    between atoms: _548  and  _549
REMARK  229  A    between atoms: _548  and  _551
REMARK  230  A    between atoms: _551  and  _552
REMARK  231  A    between atoms: _557  and  _558
REMARK  232  A    between atoms: _560  and  _562
REMARK  233  A    between atoms: _562  and  _563
REMARK  234  A    between atoms: _562  and  _565
REMARK  235  A    between atoms: _565  and  _566
REMARK                            x       y       z     vdW  Elec       q    Type
REMARK                         _______ _______ _______ _____ _____    ______ ____
ROOT
ATOM      1  O   HOH     1      46.952 -19.272  25.552  0.00  0.00    +0.000 OA
ENDROOT
TORSDOF 0
REMARK  Name = ../refined-set-2016/5e2p/5e2p_pocket.pdb
REMARK  235 active torsions:
REMARK  status: ('A' for Active; 'I' for Inactive)
REMARK    1  A    between atoms: _1  and  _5
REMARK    2  A    between atoms: _5  and  _6
REMARK    3  A    between atoms: _5  and  _8
REMARK    4  A    between atoms: _8  and  _9
REMARK    5  A    between atoms: _12  and  _14
REMARK    6  A    between atoms: _14  and  _15
REMARK    7  A    between atoms: _14  and  _17
REMARK    8  A    between atoms: _20  and  _22
REMARK    9  A    between atoms: _22  and  _23
REMARK   10  A    between atoms: _22  and  _25
REMARK   11  A    between atoms: _25  and  _26
REMARK   12  A    between atoms: _29  and  _31
REMARK   13  A    between atoms: _31  and  _32
REMARK   14  A    between atoms: _31  and  _34
REMARK   15  A    between atoms: _34  and  _35
REMARK   16  A    between atoms: _38  and  _40
REMARK   17  A    between atoms: _40  and  _41
REMARK   18  A    between atoms: _40  and  _43
REMARK   19  A    between atoms: _43  and  _44
REMARK   20  A    between atoms: _47  and  _49
REMARK   21  A    between atoms: _49  and  _50
REMARK   22  A    between atoms: _49  and  _52
REMARK   23  A    between atoms: _52  and  _53
REMARK   24  A    between atoms: _56  and  _58
REMARK   25  A    between atoms: _58  and  _59
REMARK   26  A    between atoms: _58  and  _61
REMARK   27  A    between atoms: _61  and  _62
REMARK   28  A    between atoms: _62  and  _63
REMARK   29  A    between atoms: _68  and  _70
REMARK   30  A    between atoms: _70  and  _71
REMARK   31  A    between atoms: _70  and  _73
REMARK   32  A    between atoms: _73  and  _74
REMARK   33  A    between atoms: _74  and  _75
REMARK   34  A    between atoms: _75  and  _76
REMARK   35  A    between atoms: _85  and  _87
REMARK   36  A    between atoms: _87  and  _88
REMARK   37  A    between atoms: _87  and  _90
REMARK   38  A    between atoms: _90  and  _91
REMARK   39  A    between atoms: _96  and  _98
REMARK   40  A    between atoms: _98  and  _99
REMARK   41  A    between atoms: _98  and  _101
REMARK   42  A    between atoms: _101  and  _102
REMARK   43  A    between atoms: _105  and  _107
REMARK   44  A    between atoms: _107  and  _108
REMARK   45  A    between atoms: _107  and  _110
REMARK   46  A    between atoms: _110  and  _111
REMARK   47  A    between atoms: _111  and  _146
REMARK   48  A    between atoms: _112  and  _114
REMARK   49  A    between atoms: _114  and  _115
REMARK   50  A    between atoms: _117  and  _119
REMARK   51  A    between atoms: _119  and  _120
REMARK   52  A    between atoms: _123  and  _125
REMARK   53  A    between atoms: _125  and  _126
REMARK   54  A    between atoms: _129  and  _131
REMARK   55  A    between atoms: _131  and  _132
REMARK   56  A    between atoms: _131  and  _134
REMARK   57  A    between atoms: _134  and  _135
REMARK   58  A    between atoms: _140  and  _142
REMARK   59  A    between atoms: _142  and  _143
REMARK   60  A    between atoms: _142  and  _145
REMARK   61  A    between atoms: _145  and  _146
REMARK   62  A    between atoms: _147  and  _149
REMARK   63  A    between atoms: _149  and  _150
REMARK   64  A    between atoms: _149  and  _152
REMARK   65  A    between atoms: _152  and  _153
REMARK   66  A    between atoms: _159  and  _161
REMARK   67  A    between atoms: _161  and  _162
REMARK   68  A    between atoms: _161  and  _164
REMARK   69  A    between atoms: _164  and  _165
REMARK   70  A    between atoms: _170  and  _171
REMARK   71  A    between atoms: _173  and  _175
REMARK   72  A    between atoms: _175  and  _176
REMARK   73  A    between atoms: _178  and  _180
REMARK   74  A    between atoms: _180  and  _181
REMARK   75  A    between atoms: _180  and  _183
REMARK   76  A    between atoms: _186  and  _188
REMARK   77  A    between atoms: _188  and  _189
REMARK   78  A    between atoms: _192  and  _194
REMARK   79  A    between atoms: _194  and  _195
REMARK   80  A    between atoms: _194  and  _197
REMARK   81  A    between atoms: _197  and  _198
REMARK   82  A    between atoms: _201  and  _203
REMARK   83  A    between atoms: _203  and  _204
REMARK   84  A    between atoms: _203  and  _206
REMARK   85  A    between atoms: _209  and  _211
REMARK   86  A    between atoms: _211  and  _212
REMARK   87  A    between atoms: _211  and  _214
REMARK   88  A    between atoms: _214  and  _215
REMARK   89  A    between atoms: _225  and  _227
REMARK   90  A    between atoms: _227  and  _228
REMARK   91  A    between atoms: _230  and  _232
REMARK   92  A    between atoms: _232  and  _233
REMARK   93  A    between atoms: _232  and  _235
REMARK   94  A    between atoms: _235  and  _236
REMARK   95  A    between atoms: _241  and  _242
REMARK   96  A    between atoms: _244  and  _246
REMARK   97  A    between atoms: _246  and  _247
REMARK   98  A    between atoms: _246  and  _249
REMARK   99  A    between atoms: _249  and  _250
REMARK  100  A    between atoms: _250  and  _251
REMARK  101  A    between atoms: _251  and  _252
REMARK  102  A    between atoms: _252  and  _253
REMARK  103  A    between atoms: _257  and  _259
REMARK  104  A    between atoms: _259  and  _260
REMARK  105  A    between atoms: _259  and  _262
REMARK  106  A    between atoms: _262  and  _263
REMARK  107  A    between atoms: _266  and  _268
REMARK  108  A    between atoms: _268  and  _269
REMARK  109  A    between atoms: _268  and  _271
REMARK  110  A    between atoms: _271  and  _272
REMARK  111  A    between atoms: _275  and  _277
REMARK  112  A    between atoms: _277  and  _278
REMARK  113  A    between atoms: _277  and  _280
REMARK  114  A    between atoms: _280  and  _281
REMARK  115  A    between atoms: _281  and  _282
REMARK  116  A    between atoms: _282  and  _283
REMARK  117  A    between atoms: _283  and  _284
REMARK  118  A    between atoms: _288  and  _290
REMARK  119  A    between atoms: _290  and  _291
REMARK  120  A    between atoms: _290  and  _293
REMARK  121  A    between atoms: _293  and  _294
REMARK  122  A    between atoms: _297  and  _299
REMARK  123  A    between atoms: _299  and  _300
REMARK  124  A    between atoms: _299  and  _302
REMARK  125  A    between atoms: _302  and  _303
REMARK  126  A    between atoms: _308  and  _309
REMARK  127  A    between atoms: _311  and  _313
REMARK  128  A    between atoms: _313  and  _314
REMARK  129  A    between atoms: _313  and  _316
REMARK  130  A    between atoms: _316  and  _317
REMARK  131  A    between atoms: _320  and  _322
REMARK  132  A    between atoms: _322  and  _323
REMARK  133  A    between atoms: _322  and  _325
REMARK  134  A    between atoms: _327  and  _329
REMARK  135  A    between atoms: _329  and  _330
REMARK  136  A    between atoms: _333  and  _335
REMARK  137  A    between atoms: _335  and  _336
REMARK  138  A    between atoms: _335  and  _338
REMARK  139  A    between atoms: _338  and  _339
REMARK  140  A    between atoms: _339  and  _340
REMARK  141  A    between atoms: _340  and  _341
REMARK  142  A    between atoms: _341  and  _342
REMARK  143  A    between atoms: _346  and  _348
REMARK  144  A    between atoms: _348  and  _349
REMARK  145  A    between atoms: _348  and  _351
REMARK  146  A    between atoms: _351  and  _352
REMARK  147  A    between atoms: _355  and  _357
REMARK  148  A    between atoms: _357  and  _358
REMARK  149  A    between atoms: _361  and  _363
REMARK  150  A    between atoms: _363  and  _364
REMARK  151  A    between atoms: _363  and  _366
REMARK  152  A    between atoms: _366  and  _367
REMARK  153  A    between atoms: _367  and  _490
REMARK  154  A    between atoms: _368  and  _370
REMARK  155  A    between atoms: _370  and  _371
REMARK  156  A    between atoms: _370  and  _373
REMARK  157  A    between atoms: _373  and  _374
REMARK  158  A    between atoms: _374  and  _375
REMARK  159  A    between atoms: _375  and  _376
REMARK  160  A    between atoms: _376  and  _377
REMARK  161  A    between atoms: _381  and  _383
REMARK  162  A    between atoms: _383  and  _384
REMARK  163  A    between atoms: _386  and  _388
REMARK  164  A    between atoms: _388  and  _389
REMARK  165  A    between atoms: _388  and  _391
REMARK  166  A    between atoms: _391  and  _392
REMARK  167  A    between atoms: _395  and  _397
REMARK  168  A    between atoms: _397  and  _398
REMARK  169  A    between atoms: _397  and  _400
REMARK  170  A    between atoms: _400  and  _401
REMARK  171  A    between atoms: _403  and  _405
REMARK  172  A    between atoms: _405  and  _406
REMARK  173  A    between atoms: _408  and  _410
REMARK  174  A    between atoms: _410  and  _411
REMARK  175  A    between atoms: _413  and  _415
REMARK  176  A    between atoms: _415  and  _416
REMARK  177  A    between atoms: _415  and  _418
REMARK  178  A    between atoms: _418  and  _419
REMARK  179  A    between atoms: _422  and  _424
REMARK  180  A    between atoms: _424  and  _425
REMARK  181  A    between atoms: _424  and  _427
REMARK  182  A    between atoms: _427  and  _428
REMARK  183  A    between atoms: _431  and  _433
REMARK  184  A    between atoms: _433  and  _434
REMARK  185  A    between atoms: _433  and  _436
REMARK  186  A    between atoms: _436  and  _437
REMARK  187  A    between atoms: _440  and  _442
REMARK  188  A    between atoms: _442  and  _443
REMARK  189  A    between atoms: _442  and  _445
REMARK  190  A    between atoms: _445  and  _446
REMARK  191  A    between atoms: _448  and  _450
REMARK  192  A    between atoms: _450  and  _451
REMARK  193  A    between atoms: _450  and  _453
REMARK  194  A    between atoms: _453  and  _454
REMARK  195  A    between atoms: _464  and  _466
REMARK  196  A    between atoms: _466  and  _467
REMARK  197  A    between atoms: _469  and  _471
REMARK  198  A    between atoms: _471  and  _472
REMARK  199  A    between atoms: _471  and  _474
REMARK  200  A    between atoms: _474  and  _475
REMARK  201  A    between atoms: _475  and  _476
REMARK  202  A    between atoms: _479  and  _481
REMARK  203  A    between atoms: _481  and  _482
REMARK  204  A    between atoms: _484  and  _486
REMARK  205  A    between atoms: _486  and  _487
REMARK  206  A    between atoms: _486  and  _489
REMARK  207  A    between atoms: _489  and  _490
REMARK  208  A    between atoms: _491  and  _493
REMARK  209  A    between atoms: _493  and  _494
REMARK  210  A    between atoms: _497  and  _499
REMARK  211  A    between atoms: _499  and  _500
REMARK  212  A    between atoms: _499  and  _502
REMARK  213  A    between atoms: _502  and  _503
REMARK  214  A    between atoms: _503  and  _504
REMARK  215  A    between atoms: _509  and  _511
REMARK  216  A    between atoms: _511  and  _512
REMARK  217  A    between atoms: _511  and  _514
REMARK  218  A    between atoms: _514  and  _515
REMARK  219  A    between atoms: _515  and  _516
REMARK  220  A    between atoms: _516  and  _517
REMARK  221  A    between atoms: _527  and  _528
REMARK  222  A    between atoms: _533  and  _535
REMARK  223  A    between atoms: _535  and  _536
REMARK  224  A    between atoms: _538  and  _540
REMARK  225  A    between atoms: _540  and  _541
REMARK  226  A    between atoms: _540  and  _543
REMARK  227  A    between atoms: _546  and  _548
REMARK  228  A    between atoms: _548  and  _549
REMARK  229  A    between atoms: _548  and  _551
REMARK  230  A    between atoms: _551  and  _552
REMARK  231  A    between atoms: _557  and  _558
REMARK  232  A    between atoms: _560  and  _562
REMARK  233  A    between atoms: _562  and  _563
REMARK  234  A    between atoms: _562  and  _565
REMARK  235  A    between atoms: _565  and  _566
REMARK                            x       y       z     vdW  Elec       q    Type
REMARK                         _______ _______ _______ _____ _____    ______ ____
ROOT
ATOM      1  O   HOH     1      38.299 -17.281  37.883  0.00  0.00    +0.000 OA
ENDROOT
TORSDOF 0
REMARK  Name = ../refined-set-2016/5e2p/5e2p_pocket.pdb
REMARK  235 active torsions:
REMARK  status: ('A' for Active; 'I' for Inactive)
REMARK    1  A    between atoms: _1  and  _5
REMARK    2  A    between atoms: _5  and  _6
REMARK    3  A    between atoms: _5  and  _8
REMARK    4  A    between atoms: _8  and  _9
REMARK    5  A    between atoms: _12  and  _14
REMARK    6  A    between atoms: _14  and  _15
REMARK    7  A    between atoms: _14  and  _17
REMARK    8  A    between atoms: _20  and  _22
REMARK    9  A    between atoms: _22  and  _23
REMARK   10  A    between atoms: _22  and  _25
REMARK   11  A    between atoms: _25  and  _26
REMARK   12  A    between atoms: _29  and  _31
REMARK   13  A    between atoms: _31  and  _32
REMARK   14  A    between atoms: _31  and  _34
REMARK   15  A    between atoms: _34  and  _35
REMARK   16  A    between atoms: _38  and  _40
REMARK   17  A    between atoms: _40  and  _41
REMARK   18  A    between atoms: _40  and  _43
REMARK   19  A    between atoms: _43  and  _44
REMARK   20  A    between atoms: _47  and  _49
REMARK   21  A    between atoms: _49  and  _50
REMARK   22  A    between atoms: _49  and  _52
REMARK   23  A    between atoms: _52  and  _53
REMARK   24  A    between atoms: _56  and  _58
REMARK   25  A    between atoms: _58  and  _59
REMARK   26  A    between atoms: _58  and  _61
REMARK   27  A    between atoms: _61  and  _62
REMARK   28  A    between atoms: _62  and  _63
REMARK   29  A    between atoms: _68  and  _70
REMARK   30  A    between atoms: _70  and  _71
REMARK   31  A    between atoms: _70  and  _73
REMARK   32  A    between atoms: _73  and  _74
REMARK   33  A    between atoms: _74  and  _75
REMARK   34  A    between atoms: _75  and  _76
REMARK   35  A    between atoms: _85  and  _87
REMARK   36  A    between atoms: _87  and  _88
REMARK   37  A    between atoms: _87  and  _90
REMARK   38  A    between atoms: _90  and  _91
REMARK   39  A    between atoms: _96  and  _98
REMARK   40  A    between atoms: _98  and  _99
REMARK   41  A    between atoms: _98  and  _101
REMARK   42  A    between atoms: _101  and  _102
REMARK   43  A    between atoms: _105  and  _107
REMARK   44  A    between atoms: _107  and  _108
REMARK   45  A    between atoms: _107  and  _110
REMARK   46  A    between atoms: _110  and  _111
REMARK   47  A    between atoms: _111  and  _146
REMARK   48  A    between atoms: _112  and  _114
REMARK   49  A    between atoms: _114  and  _115
REMARK   50  A    between atoms: _117  and  _119
REMARK   51  A    between atoms: _119  and  _120
REMARK   52  A    between atoms: _123  and  _125
REMARK   53  A    between atoms: _125  and  _126
REMARK   54  A    between atoms: _129  and  _131
REMARK   55  A    between atoms: _131  and  _132
REMARK   56  A    between atoms: _131  and  _134
REMARK   57  A    between atoms: _134  and  _135
REMARK   58  A    between atoms: _140  and  _142
REMARK   59  A    between atoms: _142  and  _143
REMARK   60  A    between atoms: _142  and  _145
REMARK   61  A    between atoms: _145  and  _146
REMARK   62  A    between atoms: _147  and  _149
REMARK   63  A    between atoms: _149  and  _150
REMARK   64  A    between atoms: _149  and  _152
REMARK   65  A    between atoms: _152  and  _153
REMARK   66  A    between atoms: _159  and  _161
REMARK   67  A    between atoms: _161  and  _162
REMARK   68  A    between atoms: _161  and  _164
REMARK   69  A    between atoms: _164  and  _165
REMARK   70  A    between atoms: _170  and  _171
REMARK   71  A    between atoms: _173  and  _175
REMARK   72  A    between atoms: _175  and  _176
REMARK   73  A    between atoms: _178  and  _180
REMARK   74  A    between atoms: _180  and  _181
REMARK   75  A    between atoms: _180  and  _183
REMARK   76  A    between atoms: _186  and  _188
REMARK   77  A    between atoms: _188  and  _189
REMARK   78  A    between atoms: _192  and  _194
REMARK   79  A    between atoms: _194  and  _195
REMARK   80  A    between atoms: _194  and  _197
REMARK   81  A    between atoms: _197  and  _198
REMARK   82  A    between atoms: _201  and  _203
REMARK   83  A    between atoms: _203  and  _204
REMARK   84  A    between atoms: _203  and  _206
REMARK   85  A    between atoms: _209  and  _211
REMARK   86  A    between atoms: _211  and  _212
REMARK   87  A    between atoms: _211  and  _214
REMARK   88  A    between atoms: _214  and  _215
REMARK   89  A    between atoms: _225  and  _227
REMARK   90  A    between atoms: _227  and  _228
REMARK   91  A    between atoms: _230  and  _232
REMARK   92  A    between atoms: _232  and  _233
REMARK   93  A    between atoms: _232  and  _235
REMARK   94  A    between atoms: _235  and  _236
REMARK   95  A    between atoms: _241  and  _242
REMARK   96  A    between atoms: _244  and  _246
REMARK   97  A    between atoms: _246  and  _247
REMARK   98  A    between atoms: _246  and  _249
REMARK   99  A    between atoms: _249  and  _250
REMARK  100  A    between atoms: _250  and  _251
REMARK  101  A    between atoms: _251  and  _252
REMARK  102  A    between atoms: _252  and  _253
REMARK  103  A    between atoms: _257  and  _259
REMARK  104  A    between atoms: _259  and  _260
REMARK  105  A    between atoms: _259  and  _262
REMARK  106  A    between atoms: _262  and  _263
REMARK  107  A    between atoms: _266  and  _268
REMARK  108  A    between atoms: _268  and  _269
REMARK  109  A    between atoms: _268  and  _271
REMARK  110  A    between atoms: _271  and  _272
REMARK  111  A    between atoms: _275  and  _277
REMARK  112  A    between atoms: _277  and  _278
REMARK  113  A    between atoms: _277  and  _280
REMARK  114  A    between atoms: _280  and  _281
REMARK  115  A    between atoms: _281  and  _282
REMARK  116  A    between atoms: _282  and  _283
REMARK  117  A    between atoms: _283  and  _284
REMARK  118  A    between atoms: _288  and  _290
REMARK  119  A    between atoms: _290  and  _291
REMARK  120  A    between atoms: _290  and  _293
REMARK  121  A    between atoms: _293  and  _294
REMARK  122  A    between atoms: _297  and  _299
REMARK  123  A    between atoms: _299  and  _300
REMARK  124  A    between atoms: _299  and  _302
REMARK  125  A    between atoms: _302  and  _303
REMARK  126  A    between atoms: _308  and  _309
REMARK  127  A    between atoms: _311  and  _313
REMARK  128  A    between atoms: _313  and  _314
REMARK  129  A    between atoms: _313  and  _316
REMARK  130  A    between atoms: _316  and  _317
REMARK  131  A    between atoms: _320  and  _322
REMARK  132  A    between atoms: _322  and  _323
REMARK  133  A    between atoms: _322  and  _325
REMARK  134  A    between atoms: _327  and  _329
REMARK  135  A    between atoms: _329  and  _330
REMARK  136  A    between atoms: _333  and  _335
REMARK  137  A    between atoms: _335  and  _336
REMARK  138  A    between atoms: _335  and  _338
REMARK  139  A    between atoms: _338  and  _339
REMARK  140  A    between atoms: _339  and  _340
REMARK  141  A    between atoms: _340  and  _341
REMARK  142  A    between atoms: _341  and  _342
REMARK  143  A    between atoms: _346  and  _348
REMARK  144  A    between atoms: _348  and  _349
REMARK  145  A    between atoms: _348  and  _351
REMARK  146  A    between atoms: _351  and  _352
REMARK  147  A    between atoms: _355  and  _357
REMARK  148  A    between atoms: _357  and  _358
REMARK  149  A    between atoms: _361  and  _363
REMARK  150  A    between atoms: _363  and  _364
REMARK  151  A    between atoms: _363  and  _366
REMARK  152  A    between atoms: _366  and  _367
REMARK  153  A    between atoms: _367  and  _490
REMARK  154  A    between atoms: _368  and  _370
REMARK  155  A    between atoms: _370  and  _371
REMARK  156  A    between atoms: _370  and  _373
REMARK  157  A    between atoms: _373  and  _374
REMARK  158  A    between atoms: _374  and  _375
REMARK  159  A    between atoms: _375  and  _376
REMARK  160  A    between atoms: _376  and  _377
REMARK  161  A    between atoms: _381  and  _383
REMARK  162  A    between atoms: _383  and  _384
REMARK  163  A    between atoms: _386  and  _388
REMARK  164  A    between atoms: _388  and  _389
REMARK  165  A    between atoms: _388  and  _391
REMARK  166  A    between atoms: _391  and  _392
REMARK  167  A    between atoms: _395  and  _397
REMARK  168  A    between atoms: _397  and  _398
REMARK  169  A    between atoms: _397  and  _400
REMARK  170  A    between atoms: _400  and  _401
REMARK  171  A    between atoms: _403  and  _405
REMARK  172  A    between atoms: _405  and  _406
REMARK  173  A    between atoms: _408  and  _410
REMARK  174  A    between atoms: _410  and  _411
REMARK  175  A    between atoms: _413  and  _415
REMARK  176  A    between atoms: _415  and  _416
REMARK  177  A    between atoms: _415  and  _418
REMARK  178  A    between atoms: _418  and  _419
REMARK  179  A    between atoms: _422  and  _424
REMARK  180  A    between atoms: _424  and  _425
REMARK  181  A    between atoms: _424  and  _427
REMARK  182  A    between atoms: _427  and  _428
REMARK  183  A    between atoms: _431  and  _433
REMARK  184  A    between atoms: _433  and  _434
REMARK  185  A    between atoms: _433  and  _436
REMARK  186  A    between atoms: _436  and  _437
REMARK  187  A    between atoms: _440  and  _442
REMARK  188  A    between atoms: _442  and  _443
REMARK  189  A    between atoms: _442  and  _445
REMARK  190  A    between atoms: _445  and  _446
REMARK  191  A    between atoms: _448  and  _450
REMARK  192  A    between atoms: _450  and  _451
REMARK  193  A    between atoms: _450  and  _453
REMARK  194  A    between atoms: _453  and  _454
REMARK  195  A    between atoms: _464  and  _466
REMARK  196  A    between atoms: _466  and  _467
REMARK  197  A    between atoms: _469  and  _471
REMARK  198  A    between atoms: _471  and  _472
REMARK  199  A    between atoms: _471  and  _474
REMARK  200  A    between atoms: _474  and  _475
REMARK  201  A    between atoms: _475  and  _476
REMARK  202  A    between atoms: _479  and  _481
REMARK  203  A    between atoms: _481  and  _482
REMARK  204  A    between atoms: _484  and  _486
REMARK  205  A    between atoms: _486  and  _487
REMARK  206  A    between atoms: _486  and  _489
REMARK  207  A    between atoms: _489  and  _490
REMARK  208  A    between atoms: _491  and  _493
REMARK  209  A    between atoms: _493  and  _494
REMARK  210  A    between atoms: _497  and  _499
REMARK  211  A    between atoms: _499  and  _500
REMARK  212  A    between atoms: _499  and  _502
REMARK  213  A    between atoms: _502  and  _503
REMARK  214  A    between atoms: _503  and  _504
REMARK  215  A    between atoms: _509  and  _511
REMARK  216  A    between atoms: _511  and  _512
REMARK  217  A    between atoms: _511  and  _514
REMARK  218  A    between atoms: _514  and  _515
REMARK  219  A    between atoms: _515  and  _516
REMARK  220  A    between atoms: _516  and  _517
REMARK  221  A    between atoms: _527  and  _528
REMARK  222  A    between atoms: _533  and  _535
REMARK  223  A    between atoms: _535  and  _536
REMARK  224  A    between atoms: _538  and  _540
REMARK  225  A    between atoms: _540  and  _541
REMARK  226  A    between atoms: _540  and  _543
REMARK  227  A    between atoms: _546  and  _548
REMARK  228  A    between atoms: _548  and  _549
REMARK  229  A    between atoms: _548  and  _551
REMARK  230  A    between atoms: _551  and  _552
REMARK  231  A    between atoms: _557  and  _558
REMARK  232  A    between atoms: _560  and  _562
REMARK  233  A    between atoms: _562  and  _563
REMARK  234  A    between atoms: _562  and  _565
REMARK  235  A    between atoms: _565  and  _566
REMARK                            x       y       z     vdW  Elec       q    Type
REMARK                         _______ _______ _______ _____ _____    ______ ____
ROOT
ATOM      1  O   HOH     1      36.459  -9.228  24.074  0.00  0.00    +0.000 OA
ENDROOT
TORSDOF 0
REMARK  Name = ../refined-set-2016/5e2p/5e2p_pocket.pdb
REMARK  235 active torsions:
REMARK  status: ('A' for Active; 'I' for Inactive)
REMARK    1  A    between atoms: _1  and  _5
REMARK    2  A    between atoms: _5  and  _6
REMARK    3  A    between atoms: _5  and  _8
REMARK    4  A    between atoms: _8  and  _9
REMARK    5  A    between atoms: _12  and  _14
REMARK    6  A    between atoms: _14  and  _15
REMARK    7  A    between atoms: _14  and  _17
REMARK    8  A    between atoms: _20  and  _22
REMARK    9  A    between atoms: _22  and  _23
REMARK   10  A    between atoms: _22  and  _25
REMARK   11  A    between atoms: _25  and  _26
REMARK   12  A    between atoms: _29  and  _31
REMARK   13  A    between atoms: _31  and  _32
REMARK   14  A    between atoms: _31  and  _34
REMARK   15  A    between atoms: _34  and  _35
REMARK   16  A    between atoms: _38  and  _40
REMARK   17  A    between atoms: _40  and  _41
REMARK   18  A    between atoms: _40  and  _43
REMARK   19  A    between atoms: _43  and  _44
REMARK   20  A    between atoms: _47  and  _49
REMARK   21  A    between atoms: _49  and  _50
REMARK   22  A    between atoms: _49  and  _52
REMARK   23  A    between atoms: _52  and  _53
REMARK   24  A    between atoms: _56  and  _58
REMARK   25  A    between atoms: _58  and  _59
REMARK   26  A    between atoms: _58  and  _61
REMARK   27  A    between atoms: _61  and  _62
REMARK   28  A    between atoms: _62  and  _63
REMARK   29  A    between atoms: _68  and  _70
REMARK   30  A    between atoms: _70  and  _71
REMARK   31  A    between atoms: _70  and  _73
REMARK   32  A    between atoms: _73  and  _74
REMARK   33  A    between atoms: _74  and  _75
REMARK   34  A    between atoms: _75  and  _76
REMARK   35  A    between atoms: _85  and  _87
REMARK   36  A    between atoms: _87  and  _88
REMARK   37  A    between atoms: _87  and  _90
REMARK   38  A    between atoms: _90  and  _91
REMARK   39  A    between atoms: _96  and  _98
REMARK   40  A    between atoms: _98  and  _99
REMARK   41  A    between atoms: _98  and  _101
REMARK   42  A    between atoms: _101  and  _102
REMARK   43  A    between atoms: _105  and  _107
REMARK   44  A    between atoms: _107  and  _108
REMARK   45  A    between atoms: _107  and  _110
REMARK   46  A    between atoms: _110  and  _111
REMARK   47  A    between atoms: _111  and  _146
REMARK   48  A    between atoms: _112  and  _114
REMARK   49  A    between atoms: _114  and  _115
REMARK   50  A    between atoms: _117  and  _119
REMARK   51  A    between atoms: _119  and  _120
REMARK   52  A    between atoms: _123  and  _125
REMARK   53  A    between atoms: _125  and  _126
REMARK   54  A    between atoms: _129  and  _131
REMARK   55  A    between atoms: _131  and  _132
REMARK   56  A    between atoms: _131  and  _134
REMARK   57  A    between atoms: _134  and  _135
REMARK   58  A    between atoms: _140  and  _142
REMARK   59  A    between atoms: _142  and  _143
REMARK   60  A    between atoms: _142  and  _145
REMARK   61  A    between atoms: _145  and  _146
REMARK   62  A    between atoms: _147  and  _149
REMARK   63  A    between atoms: _149  and  _150
REMARK   64  A    between atoms: _149  and  _152
REMARK   65  A    between atoms: _152  and  _153
REMARK   66  A    between atoms: _159  and  _161
REMARK   67  A    between atoms: _161  and  _162
REMARK   68  A    between atoms: _161  and  _164
REMARK   69  A    between atoms: _164  and  _165
REMARK   70  A    between atoms: _170  and  _171
REMARK   71  A    between atoms: _173  and  _175
REMARK   72  A    between atoms: _175  and  _176
REMARK   73  A    between atoms: _178  and  _180
REMARK   74  A    between atoms: _180  and  _181
REMARK   75  A    between atoms: _180  and  _183
REMARK   76  A    between atoms: _186  and  _188
REMARK   77  A    between atoms: _188  and  _189
REMARK   78  A    between atoms: _192  and  _194
REMARK   79  A    between atoms: _194  and  _195
REMARK   80  A    between atoms: _194  and  _197
REMARK   81  A    between atoms: _197  and  _198
REMARK   82  A    between atoms: _201  and  _203
REMARK   83  A    between atoms: _203  and  _204
REMARK   84  A    between atoms: _203  and  _206
REMARK   85  A    between atoms: _209  and  _211
REMARK   86  A    between atoms: _211  and  _212
REMARK   87  A    between atoms: _211  and  _214
REMARK   88  A    between atoms: _214  and  _215
REMARK   89  A    between atoms: _225  and  _227
REMARK   90  A    between atoms: _227  and  _228
REMARK   91  A    between atoms: _230  and  _232
REMARK   92  A    between atoms: _232  and  _233
REMARK   93  A    between atoms: _232  and  _235
REMARK   94  A    between atoms: _235  and  _236
REMARK   95  A    between atoms: _241  and  _242
REMARK   96  A    between atoms: _244  and  _246
REMARK   97  A    between atoms: _246  and  _247
REMARK   98  A    between atoms: _246  and  _249
REMARK   99  A    between atoms: _249  and  _250
REMARK  100  A    between atoms: _250  and  _251
REMARK  101  A    between atoms: _251  and  _252
REMARK  102  A    between atoms: _252  and  _253
REMARK  103  A    between atoms: _257  and  _259
REMARK  104  A    between atoms: _259  and  _260
REMARK  105  A    between atoms: _259  and  _262
REMARK  106  A    between atoms: _262  and  _263
REMARK  107  A    between atoms: _266  and  _268
REMARK  108  A    between atoms: _268  and  _269
REMARK  109  A    between atoms: _268  and  _271
REMARK  110  A    between atoms: _271  and  _272
REMARK  111  A    between atoms: _275  and  _277
REMARK  112  A    between atoms: _277  and  _278
REMARK  113  A    between atoms: _277  and  _280
REMARK  114  A    between atoms: _280  and  _281
REMARK  115  A    between atoms: _281  and  _282
REMARK  116  A    between atoms: _282  and  _283
REMARK  117  A    between atoms: _283  and  _284
REMARK  118  A    between atoms: _288  and  _290
REMARK  119  A    between atoms: _290  and  _291
REMARK  120  A    between atoms: _290  and  _293
REMARK  121  A    between atoms: _293  and  _294
REMARK  122  A    between atoms: _297  and  _299
REMARK  123  A    between atoms: _299  and  _300
REMARK  124  A    between atoms: _299  and  _302
REMARK  125  A    between atoms: _302  and  _303
REMARK  126  A    between atoms: _308  and  _309
REMARK  127  A    between atoms: _311  and  _313
REMARK  128  A    between atoms: _313  and  _314
REMARK  129  A    between atoms: _313  and  _316
REMARK  130  A    between atoms: _316  and  _317
REMARK  131  A    between atoms: _320  and  _322
REMARK  132  A    between atoms: _322  and  _323
REMARK  133  A    between atoms: _322  and  _325
REMARK  134  A    between atoms: _327  and  _329
REMARK  135  A    between atoms: _329  and  _330
REMARK  136  A    between atoms: _333  and  _335
REMARK  137  A    between atoms: _335  and  _336
REMARK  138  A    between atoms: _335  and  _338
REMARK  139  A    between atoms: _338  and  _339
REMARK  140  A    between atoms: _339  and  _340
REMARK  141  A    between atoms: _340  and  _341
REMARK  142  A    between atoms: _341  and  _342
REMARK  143  A    between atoms: _346  and  _348
REMARK  144  A    between atoms: _348  and  _349
REMARK  145  A    between atoms: _348  and  _351
REMARK  146  A    between atoms: _351  and  _352
REMARK  147  A    between atoms: _355  and  _357
REMARK  148  A    between atoms: _357  and  _358
REMARK  149  A    between atoms: _361  and  _363
REMARK  150  A    between atoms: _363  and  _364
REMARK  151  A    between atoms: _363  and  _366
REMARK  152  A    between atoms: _366  and  _367
REMARK  153  A    between atoms: _367  and  _490
REMARK  154  A    between atoms: _368  and  _370
REMARK  155  A    between atoms: _370  and  _371
REMARK  156  A    between atoms: _370  and  _373
REMARK  157  A    between atoms: _373  and  _374
REMARK  158  A    between atoms: _374  and  _375
REMARK  159  A    between atoms: _375  and  _376
REMARK  160  A    between atoms: _376  and  _377
REMARK  161  A    between atoms: _381  and  _383
REMARK  162  A    between atoms: _383  and  _384
REMARK  163  A    between atoms: _386  and  _388
REMARK  164  A    between atoms: _388  and  _389
REMARK  165  A    between atoms: _388  and  _391
REMARK  166  A    between atoms: _391  and  _392
REMARK  167  A    between atoms: _395  and  _397
REMARK  168  A    between atoms: _397  and  _398
REMARK  169  A    between atoms: _397  and  _400
REMARK  170  A    between atoms: _400  and  _401
REMARK  171  A    between atoms: _403  and  _405
REMARK  172  A    between atoms: _405  and  _406
REMARK  173  A    between atoms: _408  and  _410
REMARK  174  A    between atoms: _410  and  _411
REMARK  175  A    between atoms: _413  and  _415
REMARK  176  A    between atoms: _415  and  _416
REMARK  177  A    between atoms: _415  and  _418
REMARK  178  A    between atoms: _418  and  _419
REMARK  179  A    between atoms: _422  and  _424
REMARK  180  A    between atoms: _424  and  _425
REMARK  181  A    between atoms: _424  and  _427
REMARK  182  A    between atoms: _427  and  _428
REMARK  183  A    between atoms: _431  and  _433
REMARK  184  A    between atoms: _433  and  _434
REMARK  185  A    between atoms: _433  and  _436
REMARK  186  A    between atoms: _436  and  _437
REMARK  187  A    between atoms: _440  and  _442
REMARK  188  A    between atoms: _442  and  _443
REMARK  189  A    between atoms: _442  and  _445
REMARK  190  A    between atoms: _445  and  _446
REMARK  191  A    between atoms: _448  and  _450
REMARK  192  A    between atoms: _450  and  _451
REMARK  193  A    between atoms: _450  and  _453
REMARK  194  A    between atoms: _453  and  _454
REMARK  195  A    between atoms: _464  and  _466
REMARK  196  A    between atoms: _466  and  _467
REMARK  197  A    between atoms: _469  and  _471
REMARK  198  A    between atoms: _471  and  _472
REMARK  199  A    between atoms: _471  and  _474
REMARK  200  A    between atoms: _474  and  _475
REMARK  201  A    between atoms: _475  and  _476
REMARK  202  A    between atoms: _479  and  _481
REMARK  203  A    between atoms: _481  and  _482
REMARK  204  A    between atoms: _484  and  _486
REMARK  205  A    between atoms: _486  and  _487
REMARK  206  A    between atoms: _486  and  _489
REMARK  207  A    between atoms: _489  and  _490
REMARK  208  A    between atoms: _491  and  _493
REMARK  209  A    between atoms: _493  and  _494
REMARK  210  A    between atoms: _497  and  _499
REMARK  211  A    between atoms: _499  and  _500
REMARK  212  A    between atoms: _499  and  _502
REMARK  213  A    between atoms: _502  and  _503
REMARK  214  A    between atoms: _503  and  _504
REMARK  215  A    between atoms: _509  and  _511
REMARK  216  A    between atoms: _511  and  _512
REMARK  217  A    between atoms: _511  and  _514
REMARK  218  A    between atoms: _514  and  _515
REMARK  219  A    between atoms: _515  and  _516
REMARK  220  A    between atoms: _516  and  _517
REMARK  221  A    between atoms: _527  and  _528
REMARK  222  A    between atoms: _533  and  _535
REMARK  223  A    between atoms: _535  and  _536
REMARK  224  A    between atoms: _538  and  _540
REMARK  225  A    between atoms: _540  and  _541
REMARK  226  A    between atoms: _540  and  _543
REMARK  227  A    between atoms: _546  and  _548
REMARK  228  A    between atoms: _548  and  _549
REMARK  229  A    between atoms: _548  and  _551
REMARK  230  A    between atoms: _551  and  _552
REMARK  231  A    between atoms: _557  and  _558
REMARK  232  A    between atoms: _560  and  _562
REMARK  233  A    between atoms: _562  and  _563
REMARK  234  A    between atoms: _562  and  _565
REMARK  235  A    between atoms: _565  and  _566
REMARK                            x       y       z     vdW  Elec       q    Type
REMARK                         _______ _______ _______ _____ _____    ______ ____
ROOT
ATOM      1  O   HOH     1      40.842 -17.904  37.840  0.00  0.00    +0.000 OA
ENDROOT
TORSDOF 0
REMARK  Name = ../refined-set-2016/5e2p/5e2p_pocket.pdb
REMARK  235 active torsions:
REMARK  status: ('A' for Active; 'I' for Inactive)
REMARK    1  A    between atoms: _1  and  _5
REMARK    2  A    between atoms: _5  and  _6
REMARK    3  A    between atoms: _5  and  _8
REMARK    4  A    between atoms: _8  and  _9
REMARK    5  A    between atoms: _12  and  _14
REMARK    6  A    between atoms: _14  and  _15
REMARK    7  A    between atoms: _14  and  _17
REMARK    8  A    between atoms: _20  and  _22
REMARK    9  A    between atoms: _22  and  _23
REMARK   10  A    between atoms: _22  and  _25
REMARK   11  A    between atoms: _25  and  _26
REMARK   12  A    between atoms: _29  and  _31
REMARK   13  A    between atoms: _31  and  _32
REMARK   14  A    between atoms: _31  and  _34
REMARK   15  A    between atoms: _34  and  _35
REMARK   16  A    between atoms: _38  and  _40
REMARK   17  A    between atoms: _40  and  _41
REMARK   18  A    between atoms: _40  and  _43
REMARK   19  A    between atoms: _43  and  _44
REMARK   20  A    between atoms: _47  and  _49
REMARK   21  A    between atoms: _49  and  _50
REMARK   22  A    between atoms: _49  and  _52
REMARK   23  A    between atoms: _52  and  _53
REMARK   24  A    between atoms: _56  and  _58
REMARK   25  A    between atoms: _58  and  _59
REMARK   26  A    between atoms: _58  and  _61
REMARK   27  A    between atoms: _61  and  _62
REMARK   28  A    between atoms: _62  and  _63
REMARK   29  A    between atoms: _68  and  _70
REMARK   30  A    between atoms: _70  and  _71
REMARK   31  A    between atoms: _70  and  _73
REMARK   32  A    between atoms: _73  and  _74
REMARK   33  A    between atoms: _74  and  _75
REMARK   34  A    between atoms: _75  and  _76
REMARK   35  A    between atoms: _85  and  _87
REMARK   36  A    between atoms: _87  and  _88
REMARK   37  A    between atoms: _87  and  _90
REMARK   38  A    between atoms: _90  and  _91
REMARK   39  A    between atoms: _96  and  _98
REMARK   40  A    between atoms: _98  and  _99
REMARK   41  A    between atoms: _98  and  _101
REMARK   42  A    between atoms: _101  and  _102
REMARK   43  A    between atoms: _105  and  _107
REMARK   44  A    between atoms: _107  and  _108
REMARK   45  A    between atoms: _107  and  _110
REMARK   46  A    between atoms: _110  and  _111
REMARK   47  A    between atoms: _111  and  _146
REMARK   48  A    between atoms: _112  and  _114
REMARK   49  A    between atoms: _114  and  _115
REMARK   50  A    between atoms: _117  and  _119
REMARK   51  A    between atoms: _119  and  _120
REMARK   52  A    between atoms: _123  and  _125
REMARK   53  A    between atoms: _125  and  _126
REMARK   54  A    between atoms: _129  and  _131
REMARK   55  A    between atoms: _131  and  _132
REMARK   56  A    between atoms: _131  and  _134
REMARK   57  A    between atoms: _134  and  _135
REMARK   58  A    between atoms: _140  and  _142
REMARK   59  A    between atoms: _142  and  _143
REMARK   60  A    between atoms: _142  and  _145
REMARK   61  A    between atoms: _145  and  _146
REMARK   62  A    between atoms: _147  and  _149
REMARK   63  A    between atoms: _149  and  _150
REMARK   64  A    between atoms: _149  and  _152
REMARK   65  A    between atoms: _152  and  _153
REMARK   66  A    between atoms: _159  and  _161
REMARK   67  A    between atoms: _161  and  _162
REMARK   68  A    between atoms: _161  and  _164
REMARK   69  A    between atoms: _164  and  _165
REMARK   70  A    between atoms: _170  and  _171
REMARK   71  A    between atoms: _173  and  _175
REMARK   72  A    between atoms: _175  and  _176
REMARK   73  A    between atoms: _178  and  _180
REMARK   74  A    between atoms: _180  and  _181
REMARK   75  A    between atoms: _180  and  _183
REMARK   76  A    between atoms: _186  and  _188
REMARK   77  A    between atoms: _188  and  _189
REMARK   78  A    between atoms: _192  and  _194
REMARK   79  A    between atoms: _194  and  _195
REMARK   80  A    between atoms: _194  and  _197
REMARK   81  A    between atoms: _197  and  _198
REMARK   82  A    between atoms: _201  and  _203
REMARK   83  A    between atoms: _203  and  _204
REMARK   84  A    between atoms: _203  and  _206
REMARK   85  A    between atoms: _209  and  _211
REMARK   86  A    between atoms: _211  and  _212
REMARK   87  A    between atoms: _211  and  _214
REMARK   88  A    between atoms: _214  and  _215
REMARK   89  A    between atoms: _225  and  _227
REMARK   90  A    between atoms: _227  and  _228
REMARK   91  A    between atoms: _230  and  _232
REMARK   92  A    between atoms: _232  and  _233
REMARK   93  A    between atoms: _232  and  _235
REMARK   94  A    between atoms: _235  and  _236
REMARK   95  A    between atoms: _241  and  _242
REMARK   96  A    between atoms: _244  and  _246
REMARK   97  A    between atoms: _246  and  _247
REMARK   98  A    between atoms: _246  and  _249
REMARK   99  A    between atoms: _249  and  _250
REMARK  100  A    between atoms: _250  and  _251
REMARK  101  A    between atoms: _251  and  _252
REMARK  102  A    between atoms: _252  and  _253
REMARK  103  A    between atoms: _257  and  _259
REMARK  104  A    between atoms: _259  and  _260
REMARK  105  A    between atoms: _259  and  _262
REMARK  106  A    between atoms: _262  and  _263
REMARK  107  A    between atoms: _266  and  _268
REMARK  108  A    between atoms: _268  and  _269
REMARK  109  A    between atoms: _268  and  _271
REMARK  110  A    between atoms: _271  and  _272
REMARK  111  A    between atoms: _275  and  _277
REMARK  112  A    between atoms: _277  and  _278
REMARK  113  A    between atoms: _277  and  _280
REMARK  114  A    between atoms: _280  and  _281
REMARK  115  A    between atoms: _281  and  _282
REMARK  116  A    between atoms: _282  and  _283
REMARK  117  A    between atoms: _283  and  _284
REMARK  118  A    between atoms: _288  and  _290
REMARK  119  A    between atoms: _290  and  _291
REMARK  120  A    between atoms: _290  and  _293
REMARK  121  A    between atoms: _293  and  _294
REMARK  122  A    between atoms: _297  and  _299
REMARK  123  A    between atoms: _299  and  _300
REMARK  124  A    between atoms: _299  and  _302
REMARK  125  A    between atoms: _302  and  _303
REMARK  126  A    between atoms: _308  and  _309
REMARK  127  A    between atoms: _311  and  _313
REMARK  128  A    between atoms: _313  and  _314
REMARK  129  A    between atoms: _313  and  _316
REMARK  130  A    between atoms: _316  and  _317
REMARK  131  A    between atoms: _320  and  _322
REMARK  132  A    between atoms: _322  and  _323
REMARK  133  A    between atoms: _322  and  _325
REMARK  134  A    between atoms: _327  and  _329
REMARK  135  A    between atoms: _329  and  _330
REMARK  136  A    between atoms: _333  and  _335
REMARK  137  A    between atoms: _335  and  _336
REMARK  138  A    between atoms: _335  and  _338
REMARK  139  A    between atoms: _338  and  _339
REMARK  140  A    between atoms: _339  and  _340
REMARK  141  A    between atoms: _340  and  _341
REMARK  142  A    between atoms: _341  and  _342
REMARK  143  A    between atoms: _346  and  _348
REMARK  144  A    between atoms: _348  and  _349
REMARK  145  A    between atoms: _348  and  _351
REMARK  146  A    between atoms: _351  and  _352
REMARK  147  A    between atoms: _355  and  _357
REMARK  148  A    between atoms: _357  and  _358
REMARK  149  A    between atoms: _361  and  _363
REMARK  150  A    between atoms: _363  and  _364
REMARK  151  A    between atoms: _363  and  _366
REMARK  152  A    between atoms: _366  and  _367
REMARK  153  A    between atoms: _367  and  _490
REMARK  154  A    between atoms: _368  and  _370
REMARK  155  A    between atoms: _370  and  _371
REMARK  156  A    between atoms: _370  and  _373
REMARK  157  A    between atoms: _373  and  _374
REMARK  158  A    between atoms: _374  and  _375
REMARK  159  A    between atoms: _375  and  _376
REMARK  160  A    between atoms: _376  and  _377
REMARK  161  A    between atoms: _381  and  _383
REMARK  162  A    between atoms: _383  and  _384
REMARK  163  A    between atoms: _386  and  _388
REMARK  164  A    between atoms: _388  and  _389
REMARK  165  A    between atoms: _388  and  _391
REMARK  166  A    between atoms: _391  and  _392
REMARK  167  A    between atoms: _395  and  _397
REMARK  168  A    between atoms: _397  and  _398
REMARK  169  A    between atoms: _397  and  _400
REMARK  170  A    between atoms: _400  and  _401
REMARK  171  A    between atoms: _403  and  _405
REMARK  172  A    between atoms: _405  and  _406
REMARK  173  A    between atoms: _408  and  _410
REMARK  174  A    between atoms: _410  and  _411
REMARK  175  A    between atoms: _413  and  _415
REMARK  176  A    between atoms: _415  and  _416
REMARK  177  A    between atoms: _415  and  _418
REMARK  178  A    between atoms: _418  and  _419
REMARK  179  A    between atoms: _422  and  _424
REMARK  180  A    between atoms: _424  and  _425
REMARK  181  A    between atoms: _424  and  _427
REMARK  182  A    between atoms: _427  and  _428
REMARK  183  A    between atoms: _431  and  _433
REMARK  184  A    between atoms: _433  and  _434
REMARK  185  A    between atoms: _433  and  _436
REMARK  186  A    between atoms: _436  and  _437
REMARK  187  A    between atoms: _440  and  _442
REMARK  188  A    between atoms: _442  and  _443
REMARK  189  A    between atoms: _442  and  _445
REMARK  190  A    between atoms: _445  and  _446
REMARK  191  A    between atoms: _448  and  _450
REMARK  192  A    between atoms: _450  and  _451
REMARK  193  A    between atoms: _450  and  _453
REMARK  194  A    between atoms: _453  and  _454
REMARK  195  A    between atoms: _464  and  _466
REMARK  196  A    between atoms: _466  and  _467
REMARK  197  A    between atoms: _469  and  _471
REMARK  198  A    between atoms: _471  and  _472
REMARK  199  A    between atoms: _471  and  _474
REMARK  200  A    between atoms: _474  and  _475
REMARK  201  A    between atoms: _475  and  _476
REMARK  202  A    between atoms: _479  and  _481
REMARK  203  A    between atoms: _481  and  _482
REMARK  204  A    between atoms: _484  and  _486
REMARK  205  A    between atoms: _486  and  _487
REMARK  206  A    between atoms: _486  and  _489
REMARK  207  A    between atoms: _489  and  _490
REMARK  208  A    between atoms: _491  and  _493
REMARK  209  A    between atoms: _493  and  _494
REMARK  210  A    between atoms: _497  and  _499
REMARK  211  A    between atoms: _499  and  _500
REMARK  212  A    between atoms: _499  and  _502
REMARK  213  A    between atoms: _502  and  _503
REMARK  214  A    between atoms: _503  and  _504
REMARK  215  A    between atoms: _509  and  _511
REMARK  216  A    between atoms: _511  and  _512
REMARK  217  A    between atoms: _511  and  _514
REMARK  218  A    between atoms: _514  and  _515
REMARK  219  A    between atoms: _515  and  _516
REMARK  220  A    between atoms: _516  and  _517
REMARK  221  A    between atoms: _527  and  _528
REMARK  222  A    between atoms: _533  and  _535
REMARK  223  A    between atoms: _535  and  _536
REMARK  224  A    between atoms: _538  and  _540
REMARK  225  A    between atoms: _540  and  _541
REMARK  226  A    between atoms: _540  and  _543
REMARK  227  A    between atoms: _546  and  _548
REMARK  228  A    between atoms: _548  and  _549
REMARK  229  A    between atoms: _548  and  _551
REMARK  230  A    between atoms: _551  and  _552
REMARK  231  A    between atoms: _557  and  _558
REMARK  232  A    between atoms: _560  and  _562
REMARK  233  A    between atoms: _562  and  _563
REMARK  234  A    between atoms: _562  and  _565
REMARK  235  A    between atoms: _565  and  _566
REMARK                            x       y       z     vdW  Elec       q    Type
REMARK                         _______ _______ _______ _____ _____    ______ ____
ROOT
ATOM      1  O   HOH     1      39.417 -20.067  20.686  0.00  0.00    +0.000 OA
ENDROOT
TORSDOF 0
REMARK  Name = ../refined-set-2016/5e2p/5e2p_pocket.pdb
REMARK  235 active torsions:
REMARK  status: ('A' for Active; 'I' for Inactive)
REMARK    1  A    between atoms: _1  and  _5
REMARK    2  A    between atoms: _5  and  _6
REMARK    3  A    between atoms: _5  and  _8
REMARK    4  A    between atoms: _8  and  _9
REMARK    5  A    between atoms: _12  and  _14
REMARK    6  A    between atoms: _14  and  _15
REMARK    7  A    between atoms: _14  and  _17
REMARK    8  A    between atoms: _20  and  _22
REMARK    9  A    between atoms: _22  and  _23
REMARK   10  A    between atoms: _22  and  _25
REMARK   11  A    between atoms: _25  and  _26
REMARK   12  A    between atoms: _29  and  _31
REMARK   13  A    between atoms: _31  and  _32
REMARK   14  A    between atoms: _31  and  _34
REMARK   15  A    between atoms: _34  and  _35
REMARK   16  A    between atoms: _38  and  _40
REMARK   17  A    between atoms: _40  and  _41
REMARK   18  A    between atoms: _40  and  _43
REMARK   19  A    between atoms: _43  and  _44
REMARK   20  A    between atoms: _47  and  _49
REMARK   21  A    between atoms: _49  and  _50
REMARK   22  A    between atoms: _49  and  _52
REMARK   23  A    between atoms: _52  and  _53
REMARK   24  A    between atoms: _56  and  _58
REMARK   25  A    between atoms: _58  and  _59
REMARK   26  A    between atoms: _58  and  _61
REMARK   27  A    between atoms: _61  and  _62
REMARK   28  A    between atoms: _62  and  _63
REMARK   29  A    between atoms: _68  and  _70
REMARK   30  A    between atoms: _70  and  _71
REMARK   31  A    between atoms: _70  and  _73
REMARK   32  A    between atoms: _73  and  _74
REMARK   33  A    between atoms: _74  and  _75
REMARK   34  A    between atoms: _75  and  _76
REMARK   35  A    between atoms: _85  and  _87
REMARK   36  A    between atoms: _87  and  _88
REMARK   37  A    between atoms: _87  and  _90
REMARK   38  A    between atoms: _90  and  _91
REMARK   39  A    between atoms: _96  and  _98
REMARK   40  A    between atoms: _98  and  _99
REMARK   41  A    between atoms: _98  and  _101
REMARK   42  A    between atoms: _101  and  _102
REMARK   43  A    between atoms: _105  and  _107
REMARK   44  A    between atoms: _107  and  _108
REMARK   45  A    between atoms: _107  and  _110
REMARK   46  A    between atoms: _110  and  _111
REMARK   47  A    between atoms: _111  and  _146
REMARK   48  A    between atoms: _112  and  _114
REMARK   49  A    between atoms: _114  and  _115
REMARK   50  A    between atoms: _117  and  _119
REMARK   51  A    between atoms: _119  and  _120
REMARK   52  A    between atoms: _123  and  _125
REMARK   53  A    between atoms: _125  and  _126
REMARK   54  A    between atoms: _129  and  _131
REMARK   55  A    between atoms: _131  and  _132
REMARK   56  A    between atoms: _131  and  _134
REMARK   57  A    between atoms: _134  and  _135
REMARK   58  A    between atoms: _140  and  _142
REMARK   59  A    between atoms: _142  and  _143
REMARK   60  A    between atoms: _142  and  _145
REMARK   61  A    between atoms: _145  and  _146
REMARK   62  A    between atoms: _147  and  _149
REMARK   63  A    between atoms: _149  and  _150
REMARK   64  A    between atoms: _149  and  _152
REMARK   65  A    between atoms: _152  and  _153
REMARK   66  A    between atoms: _159  and  _161
REMARK   67  A    between atoms: _161  and  _162
REMARK   68  A    between atoms: _161  and  _164
REMARK   69  A    between atoms: _164  and  _165
REMARK   70  A    between atoms: _170  and  _171
REMARK   71  A    between atoms: _173  and  _175
REMARK   72  A    between atoms: _175  and  _176
REMARK   73  A    between atoms: _178  and  _180
REMARK   74  A    between atoms: _180  and  _181
REMARK   75  A    between atoms: _180  and  _183
REMARK   76  A    between atoms: _186  and  _188
REMARK   77  A    between atoms: _188  and  _189
REMARK   78  A    between atoms: _192  and  _194
REMARK   79  A    between atoms: _194  and  _195
REMARK   80  A    between atoms: _194  and  _197
REMARK   81  A    between atoms: _197  and  _198
REMARK   82  A    between atoms: _201  and  _203
REMARK   83  A    between atoms: _203  and  _204
REMARK   84  A    between atoms: _203  and  _206
REMARK   85  A    between atoms: _209  and  _211
REMARK   86  A    between atoms: _211  and  _212
REMARK   87  A    between atoms: _211  and  _214
REMARK   88  A    between atoms: _214  and  _215
REMARK   89  A    between atoms: _225  and  _227
REMARK   90  A    between atoms: _227  and  _228
REMARK   91  A    between atoms: _230  and  _232
REMARK   92  A    between atoms: _232  and  _233
REMARK   93  A    between atoms: _232  and  _235
REMARK   94  A    between atoms: _235  and  _236
REMARK   95  A    between atoms: _241  and  _242
REMARK   96  A    between atoms: _244  and  _246
REMARK   97  A    between atoms: _246  and  _247
REMARK   98  A    between atoms: _246  and  _249
REMARK   99  A    between atoms: _249  and  _250
REMARK  100  A    between atoms: _250  and  _251
REMARK  101  A    between atoms: _251  and  _252
REMARK  102  A    between atoms: _252  and  _253
REMARK  103  A    between atoms: _257  and  _259
REMARK  104  A    between atoms: _259  and  _260
REMARK  105  A    between atoms: _259  and  _262
REMARK  106  A    between atoms: _262  and  _263
REMARK  107  A    between atoms: _266  and  _268
REMARK  108  A    between atoms: _268  and  _269
REMARK  109  A    between atoms: _268  and  _271
REMARK  110  A    between atoms: _271  and  _272
REMARK  111  A    between atoms: _275  and  _277
REMARK  112  A    between atoms: _277  and  _278
REMARK  113  A    between atoms: _277  and  _280
REMARK  114  A    between atoms: _280  and  _281
REMARK  115  A    between atoms: _281  and  _282
REMARK  116  A    between atoms: _282  and  _283
REMARK  117  A    between atoms: _283  and  _284
REMARK  118  A    between atoms: _288  and  _290
REMARK  119  A    between atoms: _290  and  _291
REMARK  120  A    between atoms: _290  and  _293
REMARK  121  A    between atoms: _293  and  _294
REMARK  122  A    between atoms: _297  and  _299
REMARK  123  A    between atoms: _299  and  _300
REMARK  124  A    between atoms: _299  and  _302
REMARK  125  A    between atoms: _302  and  _303
REMARK  126  A    between atoms: _308  and  _309
REMARK  127  A    between atoms: _311  and  _313
REMARK  128  A    between atoms: _313  and  _314
REMARK  129  A    between atoms: _313  and  _316
REMARK  130  A    between atoms: _316  and  _317
REMARK  131  A    between atoms: _320  and  _322
REMARK  132  A    between atoms: _322  and  _323
REMARK  133  A    between atoms: _322  and  _325
REMARK  134  A    between atoms: _327  and  _329
REMARK  135  A    between atoms: _329  and  _330
REMARK  136  A    between atoms: _333  and  _335
REMARK  137  A    between atoms: _335  and  _336
REMARK  138  A    between atoms: _335  and  _338
REMARK  139  A    between atoms: _338  and  _339
REMARK  140  A    between atoms: _339  and  _340
REMARK  141  A    between atoms: _340  and  _341
REMARK  142  A    between atoms: _341  and  _342
REMARK  143  A    between atoms: _346  and  _348
REMARK  144  A    between atoms: _348  and  _349
REMARK  145  A    between atoms: _348  and  _351
REMARK  146  A    between atoms: _351  and  _352
REMARK  147  A    between atoms: _355  and  _357
REMARK  148  A    between atoms: _357  and  _358
REMARK  149  A    between atoms: _361  and  _363
REMARK  150  A    between atoms: _363  and  _364
REMARK  151  A    between atoms: _363  and  _366
REMARK  152  A    between atoms: _366  and  _367
REMARK  153  A    between atoms: _367  and  _490
REMARK  154  A    between atoms: _368  and  _370
REMARK  155  A    between atoms: _370  and  _371
REMARK  156  A    between atoms: _370  and  _373
REMARK  157  A    between atoms: _373  and  _374
REMARK  158  A    between atoms: _374  and  _375
REMARK  159  A    between atoms: _375  and  _376
REMARK  160  A    between atoms: _376  and  _377
REMARK  161  A    between atoms: _381  and  _383
REMARK  162  A    between atoms: _383  and  _384
REMARK  163  A    between atoms: _386  and  _388
REMARK  164  A    between atoms: _388  and  _389
REMARK  165  A    between atoms: _388  and  _391
REMARK  166  A    between atoms: _391  and  _392
REMARK  167  A    between atoms: _395  and  _397
REMARK  168  A    between atoms: _397  and  _398
REMARK  169  A    between atoms: _397  and  _400
REMARK  170  A    between atoms: _400  and  _401
REMARK  171  A    between atoms: _403  and  _405
REMARK  172  A    between atoms: _405  and  _406
REMARK  173  A    between atoms: _408  and  _410
REMARK  174  A    between atoms: _410  and  _411
REMARK  175  A    between atoms: _413  and  _415
REMARK  176  A    between atoms: _415  and  _416
REMARK  177  A    between atoms: _415  and  _418
REMARK  178  A    between atoms: _418  and  _419
REMARK  179  A    between atoms: _422  and  _424
REMARK  180  A    between atoms: _424  and  _425
REMARK  181  A    between atoms: _424  and  _427
REMARK  182  A    between atoms: _427  and  _428
REMARK  183  A    between atoms: _431  and  _433
REMARK  184  A    between atoms: _433  and  _434
REMARK  185  A    between atoms: _433  and  _436
REMARK  186  A    between atoms: _436  and  _437
REMARK  187  A    between atoms: _440  and  _442
REMARK  188  A    between atoms: _442  and  _443
REMARK  189  A    between atoms: _442  and  _445
REMARK  190  A    between atoms: _445  and  _446
REMARK  191  A    between atoms: _448  and  _450
REMARK  192  A    between atoms: _450  and  _451
REMARK  193  A    between atoms: _450  and  _453
REMARK  194  A    between atoms: _453  and  _454
REMARK  195  A    between atoms: _464  and  _466
REMARK  196  A    between atoms: _466  and  _467
REMARK  197  A    between atoms: _469  and  _471
REMARK  198  A    between atoms: _471  and  _472
REMARK  199  A    between atoms: _471  and  _474
REMARK  200  A    between atoms: _474  and  _475
REMARK  201  A    between atoms: _475  and  _476
REMARK  202  A    between atoms: _479  and  _481
REMARK  203  A    between atoms: _481  and  _482
REMARK  204  A    between atoms: _484  and  _486
REMARK  205  A    between atoms: _486  and  _487
REMARK  206  A    between atoms: _486  and  _489
REMARK  207  A    between atoms: _489  and  _490
REMARK  208  A    between atoms: _491  and  _493
REMARK  209  A    between atoms: _493  and  _494
REMARK  210  A    between atoms: _497  and  _499
REMARK  211  A    between atoms: _499  and  _500
REMARK  212  A    between atoms: _499  and  _502
REMARK  213  A    between atoms: _502  and  _503
REMARK  214  A    between atoms: _503  and  _504
REMARK  215  A    between atoms: _509  and  _511
REMARK  216  A    between atoms: _511  and  _512
REMARK  217  A    between atoms: _511  and  _514
REMARK  218  A    between atoms: _514  and  _515
REMARK  219  A    between atoms: _515  and  _516
REMARK  220  A    between atoms: _516  and  _517
REMARK  221  A    between atoms: _527  and  _528
REMARK  222  A    between atoms: _533  and  _535
REMARK  223  A    between atoms: _535  and  _536
REMARK  224  A    between atoms: _538  and  _540
REMARK  225  A    between atoms: _540  and  _541
REMARK  226  A    between atoms: _540  and  _543
REMARK  227  A    between atoms: _546  and  _548
REMARK  228  A    between atoms: _548  and  _549
REMARK  229  A    between atoms: _548  and  _551
REMARK  230  A    between atoms: _551  and  _552
REMARK  231  A    between atoms: _557  and  _558
REMARK  232  A    between atoms: _560  and  _562
REMARK  233  A    between atoms: _562  and  _563
REMARK  234  A    between atoms: _562  and  _565
REMARK  235  A    between atoms: _565  and  _566
REMARK                            x       y       z     vdW  Elec       q    Type
REMARK                         _______ _______ _______ _____ _____    ______ ____
ROOT
ATOM      1  O   HOH     1      43.746  -8.363  25.390  0.00  0.00    +0.000 OA
ENDROOT
TORSDOF 0
REMARK  Name = ../refined-set-2016/5e2p/5e2p_pocket.pdb
REMARK  235 active torsions:
REMARK  status: ('A' for Active; 'I' for Inactive)
REMARK    1  A    between atoms: _1  and  _5
REMARK    2  A    between atoms: _5  and  _6
REMARK    3  A    between atoms: _5  and  _8
REMARK    4  A    between atoms: _8  and  _9
REMARK    5  A    between atoms: _12  and  _14
REMARK    6  A    between atoms: _14  and  _15
REMARK    7  A    between atoms: _14  and  _17
REMARK    8  A    between atoms: _20  and  _22
REMARK    9  A    between atoms: _22  and  _23
REMARK   10  A    between atoms: _22  and  _25
REMARK   11  A    between atoms: _25  and  _26
REMARK   12  A    between atoms: _29  and  _31
REMARK   13  A    between atoms: _31  and  _32
REMARK   14  A    between atoms: _31  and  _34
REMARK   15  A    between atoms: _34  and  _35
REMARK   16  A    between atoms: _38  and  _40
REMARK   17  A    between atoms: _40  and  _41
REMARK   18  A    between atoms: _40  and  _43
REMARK   19  A    between atoms: _43  and  _44
REMARK   20  A    between atoms: _47  and  _49
REMARK   21  A    between atoms: _49  and  _50
REMARK   22  A    between atoms: _49  and  _52
REMARK   23  A    between atoms: _52  and  _53
REMARK   24  A    between atoms: _56  and  _58
REMARK   25  A    between atoms: _58  and  _59
REMARK   26  A    between atoms: _58  and  _61
REMARK   27  A    between atoms: _61  and  _62
REMARK   28  A    between atoms: _62  and  _63
REMARK   29  A    between atoms: _68  and  _70
REMARK   30  A    between atoms: _70  and  _71
REMARK   31  A    between atoms: _70  and  _73
REMARK   32  A    between atoms: _73  and  _74
REMARK   33  A    between atoms: _74  and  _75
REMARK   34  A    between atoms: _75  and  _76
REMARK   35  A    between atoms: _85  and  _87
REMARK   36  A    between atoms: _87  and  _88
REMARK   37  A    between atoms: _87  and  _90
REMARK   38  A    between atoms: _90  and  _91
REMARK   39  A    between atoms: _96  and  _98
REMARK   40  A    between atoms: _98  and  _99
REMARK   41  A    between atoms: _98  and  _101
REMARK   42  A    between atoms: _101  and  _102
REMARK   43  A    between atoms: _105  and  _107
REMARK   44  A    between atoms: _107  and  _108
REMARK   45  A    between atoms: _107  and  _110
REMARK   46  A    between atoms: _110  and  _111
REMARK   47  A    between atoms: _111  and  _146
REMARK   48  A    between atoms: _112  and  _114
REMARK   49  A    between atoms: _114  and  _115
REMARK   50  A    between atoms: _117  and  _119
REMARK   51  A    between atoms: _119  and  _120
REMARK   52  A    between atoms: _123  and  _125
REMARK   53  A    between atoms: _125  and  _126
REMARK   54  A    between atoms: _129  and  _131
REMARK   55  A    between atoms: _131  and  _132
REMARK   56  A    between atoms: _131  and  _134
REMARK   57  A    between atoms: _134  and  _135
REMARK   58  A    between atoms: _140  and  _142
REMARK   59  A    between atoms: _142  and  _143
REMARK   60  A    between atoms: _142  and  _145
REMARK   61  A    between atoms: _145  and  _146
REMARK   62  A    between atoms: _147  and  _149
REMARK   63  A    between atoms: _149  and  _150
REMARK   64  A    between atoms: _149  and  _152
REMARK   65  A    between atoms: _152  and  _153
REMARK   66  A    between atoms: _159  and  _161
REMARK   67  A    between atoms: _161  and  _162
REMARK   68  A    between atoms: _161  and  _164
REMARK   69  A    between atoms: _164  and  _165
REMARK   70  A    between atoms: _170  and  _171
REMARK   71  A    between atoms: _173  and  _175
REMARK   72  A    between atoms: _175  and  _176
REMARK   73  A    between atoms: _178  and  _180
REMARK   74  A    between atoms: _180  and  _181
REMARK   75  A    between atoms: _180  and  _183
REMARK   76  A    between atoms: _186  and  _188
REMARK   77  A    between atoms: _188  and  _189
REMARK   78  A    between atoms: _192  and  _194
REMARK   79  A    between atoms: _194  and  _195
REMARK   80  A    between atoms: _194  and  _197
REMARK   81  A    between atoms: _197  and  _198
REMARK   82  A    between atoms: _201  and  _203
REMARK   83  A    between atoms: _203  and  _204
REMARK   84  A    between atoms: _203  and  _206
REMARK   85  A    between atoms: _209  and  _211
REMARK   86  A    between atoms: _211  and  _212
REMARK   87  A    between atoms: _211  and  _214
REMARK   88  A    between atoms: _214  and  _215
REMARK   89  A    between atoms: _225  and  _227
REMARK   90  A    between atoms: _227  and  _228
REMARK   91  A    between atoms: _230  and  _232
REMARK   92  A    between atoms: _232  and  _233
REMARK   93  A    between atoms: _232  and  _235
REMARK   94  A    between atoms: _235  and  _236
REMARK   95  A    between atoms: _241  and  _242
REMARK   96  A    between atoms: _244  and  _246
REMARK   97  A    between atoms: _246  and  _247
REMARK   98  A    between atoms: _246  and  _249
REMARK   99  A    between atoms: _249  and  _250
REMARK  100  A    between atoms: _250  and  _251
REMARK  101  A    between atoms: _251  and  _252
REMARK  102  A    between atoms: _252  and  _253
REMARK  103  A    between atoms: _257  and  _259
REMARK  104  A    between atoms: _259  and  _260
REMARK  105  A    between atoms: _259  and  _262
REMARK  106  A    between atoms: _262  and  _263
REMARK  107  A    between atoms: _266  and  _268
REMARK  108  A    between atoms: _268  and  _269
REMARK  109  A    between atoms: _268  and  _271
REMARK  110  A    between atoms: _271  and  _272
REMARK  111  A    between atoms: _275  and  _277
REMARK  112  A    between atoms: _277  and  _278
REMARK  113  A    between atoms: _277  and  _280
REMARK  114  A    between atoms: _280  and  _281
REMARK  115  A    between atoms: _281  and  _282
REMARK  116  A    between atoms: _282  and  _283
REMARK  117  A    between atoms: _283  and  _284
REMARK  118  A    between atoms: _288  and  _290
REMARK  119  A    between atoms: _290  and  _291
REMARK  120  A    between atoms: _290  and  _293
REMARK  121  A    between atoms: _293  and  _294
REMARK  122  A    between atoms: _297  and  _299
REMARK  123  A    between atoms: _299  and  _300
REMARK  124  A    between atoms: _299  and  _302
REMARK  125  A    between atoms: _302  and  _303
REMARK  126  A    between atoms: _308  and  _309
REMARK  127  A    between atoms: _311  and  _313
REMARK  128  A    between atoms: _313  and  _314
REMARK  129  A    between atoms: _313  and  _316
REMARK  130  A    between atoms: _316  and  _317
REMARK  131  A    between atoms: _320  and  _322
REMARK  132  A    between atoms: _322  and  _323
REMARK  133  A    between atoms: _322  and  _325
REMARK  134  A    between atoms: _327  and  _329
REMARK  135  A    between atoms: _329  and  _330
REMARK  136  A    between atoms: _333  and  _335
REMARK  137  A    between atoms: _335  and  _336
REMARK  138  A    between atoms: _335  and  _338
REMARK  139  A    between atoms: _338  and  _339
REMARK  140  A    between atoms: _339  and  _340
REMARK  141  A    between atoms: _340  and  _341
REMARK  142  A    between atoms: _341  and  _342
REMARK  143  A    between atoms: _346  and  _348
REMARK  144  A    between atoms: _348  and  _349
REMARK  145  A    between atoms: _348  and  _351
REMARK  146  A    between atoms: _351  and  _352
REMARK  147  A    between atoms: _355  and  _357
REMARK  148  A    between atoms: _357  and  _358
REMARK  149  A    between atoms: _361  and  _363
REMARK  150  A    between atoms: _363  and  _364
REMARK  151  A    between atoms: _363  and  _366
REMARK  152  A    between atoms: _366  and  _367
REMARK  153  A    between atoms: _367  and  _490
REMARK  154  A    between atoms: _368  and  _370
REMARK  155  A    between atoms: _370  and  _371
REMARK  156  A    between atoms: _370  and  _373
REMARK  157  A    between atoms: _373  and  _374
REMARK  158  A    between atoms: _374  and  _375
REMARK  159  A    between atoms: _375  and  _376
REMARK  160  A    between atoms: _376  and  _377
REMARK  161  A    between atoms: _381  and  _383
REMARK  162  A    between atoms: _383  and  _384
REMARK  163  A    between atoms: _386  and  _388
REMARK  164  A    between atoms: _388  and  _389
REMARK  165  A    between atoms: _388  and  _391
REMARK  166  A    between atoms: _391  and  _392
REMARK  167  A    between atoms: _395  and  _397
REMARK  168  A    between atoms: _397  and  _398
REMARK  169  A    between atoms: _397  and  _400
REMARK  170  A    between atoms: _400  and  _401
REMARK  171  A    between atoms: _403  and  _405
REMARK  172  A    between atoms: _405  and  _406
REMARK  173  A    between atoms: _408  and  _410
REMARK  174  A    between atoms: _410  and  _411
REMARK  175  A    between atoms: _413  and  _415
REMARK  176  A    between atoms: _415  and  _416
REMARK  177  A    between atoms: _415  and  _418
REMARK  178  A    between atoms: _418  and  _419
REMARK  179  A    between atoms: _422  and  _424
REMARK  180  A    between atoms: _424  and  _425
REMARK  181  A    between atoms: _424  and  _427
REMARK  182  A    between atoms: _427  and  _428
REMARK  183  A    between atoms: _431  and  _433
REMARK  184  A    between atoms: _433  and  _434
REMARK  185  A    between atoms: _433  and  _436
REMARK  186  A    between atoms: _436  and  _437
REMARK  187  A    between atoms: _440  and  _442
REMARK  188  A    between atoms: _442  and  _443
REMARK  189  A    between atoms: _442  and  _445
REMARK  190  A    between atoms: _445  and  _446
REMARK  191  A    between atoms: _448  and  _450
REMARK  192  A    between atoms: _450  and  _451
REMARK  193  A    between atoms: _450  and  _453
REMARK  194  A    between atoms: _453  and  _454
REMARK  195  A    between atoms: _464  and  _466
REMARK  196  A    between atoms: _466  and  _467
REMARK  197  A    between atoms: _469  and  _471
REMARK  198  A    between atoms: _471  and  _472
REMARK  199  A    between atoms: _471  and  _474
REMARK  200  A    between atoms: _474  and  _475
REMARK  201  A    between atoms: _475  and  _476
REMARK  202  A    between atoms: _479  and  _481
REMARK  203  A    between atoms: _481  and  _482
REMARK  204  A    between atoms: _484  and  _486
REMARK  205  A    between atoms: _486  and  _487
REMARK  206  A    between atoms: _486  and  _489
REMARK  207  A    between atoms: _489  and  _490
REMARK  208  A    between atoms: _491  and  _493
REMARK  209  A    between atoms: _493  and  _494
REMARK  210  A    between atoms: _497  and  _499
REMARK  211  A    between atoms: _499  and  _500
REMARK  212  A    between atoms: _499  and  _502
REMARK  213  A    between atoms: _502  and  _503
REMARK  214  A    between atoms: _503  and  _504
REMARK  215  A    between atoms: _509  and  _511
REMARK  216  A    between atoms: _511  and  _512
REMARK  217  A    between atoms: _511  and  _514
REMARK  218  A    between atoms: _514  and  _515
REMARK  219  A    between atoms: _515  and  _516
REMARK  220  A    between atoms: _516  and  _517
REMARK  221  A    between atoms: _527  and  _528
REMARK  222  A    between atoms: _533  and  _535
REMARK  223  A    between atoms: _535  and  _536
REMARK  224  A    between atoms: _538  and  _540
REMARK  225  A    between atoms: _540  and  _541
REMARK  226  A    between atoms: _540  and  _543
REMARK  227  A    between atoms: _546  and  _548
REMARK  228  A    between atoms: _548  and  _549
REMARK  229  A    between atoms: _548  and  _551
REMARK  230  A    between atoms: _551  and  _552
REMARK  231  A    between atoms: _557  and  _558
REMARK  232  A    between atoms: _560  and  _562
REMARK  233  A    between atoms: _562  and  _563
REMARK  234  A    between atoms: _562  and  _565
REMARK  235  A    between atoms: _565  and  _566
REMARK                            x       y       z     vdW  Elec       q    Type
REMARK                         _______ _______ _______ _____ _____    ______ ____
ROOT
ATOM      1  O   HOH     1      45.223 -22.611  26.820  0.00  0.00    +0.000 OA
ENDROOT
TORSDOF 0
REMARK  Name = ../refined-set-2016/5e2p/5e2p_pocket.pdb
REMARK  235 active torsions:
REMARK  status: ('A' for Active; 'I' for Inactive)
REMARK    1  A    between atoms: _1  and  _5
REMARK    2  A    between atoms: _5  and  _6
REMARK    3  A    between atoms: _5  and  _8
REMARK    4  A    between atoms: _8  and  _9
REMARK    5  A    between atoms: _12  and  _14
REMARK    6  A    between atoms: _14  and  _15
REMARK    7  A    between atoms: _14  and  _17
REMARK    8  A    between atoms: _20  and  _22
REMARK    9  A    between atoms: _22  and  _23
REMARK   10  A    between atoms: _22  and  _25
REMARK   11  A    between atoms: _25  and  _26
REMARK   12  A    between atoms: _29  and  _31
REMARK   13  A    between atoms: _31  and  _32
REMARK   14  A    between atoms: _31  and  _34
REMARK   15  A    between atoms: _34  and  _35
REMARK   16  A    between atoms: _38  and  _40
REMARK   17  A    between atoms: _40  and  _41
REMARK   18  A    between atoms: _40  and  _43
REMARK   19  A    between atoms: _43  and  _44
REMARK   20  A    between atoms: _47  and  _49
REMARK   21  A    between atoms: _49  and  _50
REMARK   22  A    between atoms: _49  and  _52
REMARK   23  A    between atoms: _52  and  _53
REMARK   24  A    between atoms: _56  and  _58
REMARK   25  A    between atoms: _58  and  _59
REMARK   26  A    between atoms: _58  and  _61
REMARK   27  A    between atoms: _61  and  _62
REMARK   28  A    between atoms: _62  and  _63
REMARK   29  A    between atoms: _68  and  _70
REMARK   30  A    between atoms: _70  and  _71
REMARK   31  A    between atoms: _70  and  _73
REMARK   32  A    between atoms: _73  and  _74
REMARK   33  A    between atoms: _74  and  _75
REMARK   34  A    between atoms: _75  and  _76
REMARK   35  A    between atoms: _85  and  _87
REMARK   36  A    between atoms: _87  and  _88
REMARK   37  A    between atoms: _87  and  _90
REMARK   38  A    between atoms: _90  and  _91
REMARK   39  A    between atoms: _96  and  _98
REMARK   40  A    between atoms: _98  and  _99
REMARK   41  A    between atoms: _98  and  _101
REMARK   42  A    between atoms: _101  and  _102
REMARK   43  A    between atoms: _105  and  _107
REMARK   44  A    between atoms: _107  and  _108
REMARK   45  A    between atoms: _107  and  _110
REMARK   46  A    between atoms: _110  and  _111
REMARK   47  A    between atoms: _111  and  _146
REMARK   48  A    between atoms: _112  and  _114
REMARK   49  A    between atoms: _114  and  _115
REMARK   50  A    between atoms: _117  and  _119
REMARK   51  A    between atoms: _119  and  _120
REMARK   52  A    between atoms: _123  and  _125
REMARK   53  A    between atoms: _125  and  _126
REMARK   54  A    between atoms: _129  and  _131
REMARK   55  A    between atoms: _131  and  _132
REMARK   56  A    between atoms: _131  and  _134
REMARK   57  A    between atoms: _134  and  _135
REMARK   58  A    between atoms: _140  and  _142
REMARK   59  A    between atoms: _142  and  _143
REMARK   60  A    between atoms: _142  and  _145
REMARK   61  A    between atoms: _145  and  _146
REMARK   62  A    between atoms: _147  and  _149
REMARK   63  A    between atoms: _149  and  _150
REMARK   64  A    between atoms: _149  and  _152
REMARK   65  A    between atoms: _152  and  _153
REMARK   66  A    between atoms: _159  and  _161
REMARK   67  A    between atoms: _161  and  _162
REMARK   68  A    between atoms: _161  and  _164
REMARK   69  A    between atoms: _164  and  _165
REMARK   70  A    between atoms: _170  and  _171
REMARK   71  A    between atoms: _173  and  _175
REMARK   72  A    between atoms: _175  and  _176
REMARK   73  A    between atoms: _178  and  _180
REMARK   74  A    between atoms: _180  and  _181
REMARK   75  A    between atoms: _180  and  _183
REMARK   76  A    between atoms: _186  and  _188
REMARK   77  A    between atoms: _188  and  _189
REMARK   78  A    between atoms: _192  and  _194
REMARK   79  A    between atoms: _194  and  _195
REMARK   80  A    between atoms: _194  and  _197
REMARK   81  A    between atoms: _197  and  _198
REMARK   82  A    between atoms: _201  and  _203
REMARK   83  A    between atoms: _203  and  _204
REMARK   84  A    between atoms: _203  and  _206
REMARK   85  A    between atoms: _209  and  _211
REMARK   86  A    between atoms: _211  and  _212
REMARK   87  A    between atoms: _211  and  _214
REMARK   88  A    between atoms: _214  and  _215
REMARK   89  A    between atoms: _225  and  _227
REMARK   90  A    between atoms: _227  and  _228
REMARK   91  A    between atoms: _230  and  _232
REMARK   92  A    between atoms: _232  and  _233
REMARK   93  A    between atoms: _232  and  _235
REMARK   94  A    between atoms: _235  and  _236
REMARK   95  A    between atoms: _241  and  _242
REMARK   96  A    between atoms: _244  and  _246
REMARK   97  A    between atoms: _246  and  _247
REMARK   98  A    between atoms: _246  and  _249
REMARK   99  A    between atoms: _249  and  _250
REMARK  100  A    between atoms: _250  and  _251
REMARK  101  A    between atoms: _251  and  _252
REMARK  102  A    between atoms: _252  and  _253
REMARK  103  A    between atoms: _257  and  _259
REMARK  104  A    between atoms: _259  and  _260
REMARK  105  A    between atoms: _259  and  _262
REMARK  106  A    between atoms: _262  and  _263
REMARK  107  A    between atoms: _266  and  _268
REMARK  108  A    between atoms: _268  and  _269
REMARK  109  A    between atoms: _268  and  _271
REMARK  110  A    between atoms: _271  and  _272
REMARK  111  A    between atoms: _275  and  _277
REMARK  112  A    between atoms: _277  and  _278
REMARK  113  A    between atoms: _277  and  _280
REMARK  114  A    between atoms: _280  and  _281
REMARK  115  A    between atoms: _281  and  _282
REMARK  116  A    between atoms: _282  and  _283
REMARK  117  A    between atoms: _283  and  _284
REMARK  118  A    between atoms: _288  and  _290
REMARK  119  A    between atoms: _290  and  _291
REMARK  120  A    between atoms: _290  and  _293
REMARK  121  A    between atoms: _293  and  _294
REMARK  122  A    between atoms: _297  and  _299
REMARK  123  A    between atoms: _299  and  _300
REMARK  124  A    between atoms: _299  and  _302
REMARK  125  A    between atoms: _302  and  _303
REMARK  126  A    between atoms: _308  and  _309
REMARK  127  A    between atoms: _311  and  _313
REMARK  128  A    between atoms: _313  and  _314
REMARK  129  A    between atoms: _313  and  _316
REMARK  130  A    between atoms: _316  and  _317
REMARK  131  A    between atoms: _320  and  _322
REMARK  132  A    between atoms: _322  and  _323
REMARK  133  A    between atoms: _322  and  _325
REMARK  134  A    between atoms: _327  and  _329
REMARK  135  A    between atoms: _329  and  _330
REMARK  136  A    between atoms: _333  and  _335
REMARK  137  A    between atoms: _335  and  _336
REMARK  138  A    between atoms: _335  and  _338
REMARK  139  A    between atoms: _338  and  _339
REMARK  140  A    between atoms: _339  and  _340
REMARK  141  A    between atoms: _340  and  _341
REMARK  142  A    between atoms: _341  and  _342
REMARK  143  A    between atoms: _346  and  _348
REMARK  144  A    between atoms: _348  and  _349
REMARK  145  A    between atoms: _348  and  _351
REMARK  146  A    between atoms: _351  and  _352
REMARK  147  A    between atoms: _355  and  _357
REMARK  148  A    between atoms: _357  and  _358
REMARK  149  A    between atoms: _361  and  _363
REMARK  150  A    between atoms: _363  and  _364
REMARK  151  A    between atoms: _363  and  _366
REMARK  152  A    between atoms: _366  and  _367
REMARK  153  A    between atoms: _367  and  _490
REMARK  154  A    between atoms: _368  and  _370
REMARK  155  A    between atoms: _370  and  _371
REMARK  156  A    between atoms: _370  and  _373
REMARK  157  A    between atoms: _373  and  _374
REMARK  158  A    between atoms: _374  and  _375
REMARK  159  A    between atoms: _375  and  _376
REMARK  160  A    between atoms: _376  and  _377
REMARK  161  A    between atoms: _381  and  _383
REMARK  162  A    between atoms: _383  and  _384
REMARK  163  A    between atoms: _386  and  _388
REMARK  164  A    between atoms: _388  and  _389
REMARK  165  A    between atoms: _388  and  _391
REMARK  166  A    between atoms: _391  and  _392
REMARK  167  A    between atoms: _395  and  _397
REMARK  168  A    between atoms: _397  and  _398
REMARK  169  A    between atoms: _397  and  _400
REMARK  170  A    between atoms: _400  and  _401
REMARK  171  A    between atoms: _403  and  _405
REMARK  172  A    between atoms: _405  and  _406
REMARK  173  A    between atoms: _408  and  _410
REMARK  174  A    between atoms: _410  and  _411
REMARK  175  A    between atoms: _413  and  _415
REMARK  176  A    between atoms: _415  and  _416
REMARK  177  A    between atoms: _415  and  _418
REMARK  178  A    between atoms: _418  and  _419
REMARK  179  A    between atoms: _422  and  _424
REMARK  180  A    between atoms: _424  and  _425
REMARK  181  A    between atoms: _424  and  _427
REMARK  182  A    between atoms: _427  and  _428
REMARK  183  A    between atoms: _431  and  _433
REMARK  184  A    between atoms: _433  and  _434
REMARK  185  A    between atoms: _433  and  _436
REMARK  186  A    between atoms: _436  and  _437
REMARK  187  A    between atoms: _440  and  _442
REMARK  188  A    between atoms: _442  and  _443
REMARK  189  A    between atoms: _442  and  _445
REMARK  190  A    between atoms: _445  and  _446
REMARK  191  A    between atoms: _448  and  _450
REMARK  192  A    between atoms: _450  and  _451
REMARK  193  A    between atoms: _450  and  _453
REMARK  194  A    between atoms: _453  and  _454
REMARK  195  A    between atoms: _464  and  _466
REMARK  196  A    between atoms: _466  and  _467
REMARK  197  A    between atoms: _469  and  _471
REMARK  198  A    between atoms: _471  and  _472
REMARK  199  A    between atoms: _471  and  _474
REMARK  200  A    between atoms: _474  and  _475
REMARK  201  A    between atoms: _475  and  _476
REMARK  202  A    between atoms: _479  and  _481
REMARK  203  A    between atoms: _481  and  _482
REMARK  204  A    between atoms: _484  and  _486
REMARK  205  A    between atoms: _486  and  _487
REMARK  206  A    between atoms: _486  and  _489
REMARK  207  A    between atoms: _489  and  _490
REMARK  208  A    between atoms: _491  and  _493
REMARK  209  A    between atoms: _493  and  _494
REMARK  210  A    between atoms: _497  and  _499
REMARK  211  A    between atoms: _499  and  _500
REMARK  212  A    between atoms: _499  and  _502
REMARK  213  A    between atoms: _502  and  _503
REMARK  214  A    between atoms: _503  and  _504
REMARK  215  A    between atoms: _509  and  _511
REMARK  216  A    between atoms: _511  and  _512
REMARK  217  A    between atoms: _511  and  _514
REMARK  218  A    between atoms: _514  and  _515
REMARK  219  A    between atoms: _515  and  _516
REMARK  220  A    between atoms: _516  and  _517
REMARK  221  A    between atoms: _527  and  _528
REMARK  222  A    between atoms: _533  and  _535
REMARK  223  A    between atoms: _535  and  _536
REMARK  224  A    between atoms: _538  and  _540
REMARK  225  A    between atoms: _540  and  _541
REMARK  226  A    between atoms: _540  and  _543
REMARK  227  A    between atoms: _546  and  _548
REMARK  228  A    between atoms: _548  and  _549
REMARK  229  A    between atoms: _548  and  _551
REMARK  230  A    between atoms: _551  and  _552
REMARK  231  A    between atoms: _557  and  _558
REMARK  232  A    between atoms: _560  and  _562
REMARK  233  A    between atoms: _562  and  _563
REMARK  234  A    between atoms: _562  and  _565
REMARK  235  A    between atoms: _565  and  _566
REMARK                            x       y       z     vdW  Elec       q    Type
REMARK                         _______ _______ _______ _____ _____    ______ ____
ROOT
ATOM      1  O   HOH     1      49.716 -22.230  36.607  0.00  0.00    +0.000 OA
ENDROOT
TORSDOF 0
REMARK  Name = ../refined-set-2016/5e2p/5e2p_pocket.pdb
REMARK  235 active torsions:
REMARK  status: ('A' for Active; 'I' for Inactive)
REMARK    1  A    between atoms: _1  and  _5
REMARK    2  A    between atoms: _5  and  _6
REMARK    3  A    between atoms: _5  and  _8
REMARK    4  A    between atoms: _8  and  _9
REMARK    5  A    between atoms: _12  and  _14
REMARK    6  A    between atoms: _14  and  _15
REMARK    7  A    between atoms: _14  and  _17
REMARK    8  A    between atoms: _20  and  _22
REMARK    9  A    between atoms: _22  and  _23
REMARK   10  A    between atoms: _22  and  _25
REMARK   11  A    between atoms: _25  and  _26
REMARK   12  A    between atoms: _29  and  _31
REMARK   13  A    between atoms: _31  and  _32
REMARK   14  A    between atoms: _31  and  _34
REMARK   15  A    between atoms: _34  and  _35
REMARK   16  A    between atoms: _38  and  _40
REMARK   17  A    between atoms: _40  and  _41
REMARK   18  A    between atoms: _40  and  _43
REMARK   19  A    between atoms: _43  and  _44
REMARK   20  A    between atoms: _47  and  _49
REMARK   21  A    between atoms: _49  and  _50
REMARK   22  A    between atoms: _49  and  _52
REMARK   23  A    between atoms: _52  and  _53
REMARK   24  A    between atoms: _56  and  _58
REMARK   25  A    between atoms: _58  and  _59
REMARK   26  A    between atoms: _58  and  _61
REMARK   27  A    between atoms: _61  and  _62
REMARK   28  A    between atoms: _62  and  _63
REMARK   29  A    between atoms: _68  and  _70
REMARK   30  A    between atoms: _70  and  _71
REMARK   31  A    between atoms: _70  and  _73
REMARK   32  A    between atoms: _73  and  _74
REMARK   33  A    between atoms: _74  and  _75
REMARK   34  A    between atoms: _75  and  _76
REMARK   35  A    between atoms: _85  and  _87
REMARK   36  A    between atoms: _87  and  _88
REMARK   37  A    between atoms: _87  and  _90
REMARK   38  A    between atoms: _90  and  _91
REMARK   39  A    between atoms: _96  and  _98
REMARK   40  A    between atoms: _98  and  _99
REMARK   41  A    between atoms: _98  and  _101
REMARK   42  A    between atoms: _101  and  _102
REMARK   43  A    between atoms: _105  and  _107
REMARK   44  A    between atoms: _107  and  _108
REMARK   45  A    between atoms: _107  and  _110
REMARK   46  A    between atoms: _110  and  _111
REMARK   47  A    between atoms: _111  and  _146
REMARK   48  A    between atoms: _112  and  _114
REMARK   49  A    between atoms: _114  and  _115
REMARK   50  A    between atoms: _117  and  _119
REMARK   51  A    between atoms: _119  and  _120
REMARK   52  A    between atoms: _123  and  _125
REMARK   53  A    between atoms: _125  and  _126
REMARK   54  A    between atoms: _129  and  _131
REMARK   55  A    between atoms: _131  and  _132
REMARK   56  A    between atoms: _131  and  _134
REMARK   57  A    between atoms: _134  and  _135
REMARK   58  A    between atoms: _140  and  _142
REMARK   59  A    between atoms: _142  and  _143
REMARK   60  A    between atoms: _142  and  _145
REMARK   61  A    between atoms: _145  and  _146
REMARK   62  A    between atoms: _147  and  _149
REMARK   63  A    between atoms: _149  and  _150
REMARK   64  A    between atoms: _149  and  _152
REMARK   65  A    between atoms: _152  and  _153
REMARK   66  A    between atoms: _159  and  _161
REMARK   67  A    between atoms: _161  and  _162
REMARK   68  A    between atoms: _161  and  _164
REMARK   69  A    between atoms: _164  and  _165
REMARK   70  A    between atoms: _170  and  _171
REMARK   71  A    between atoms: _173  and  _175
REMARK   72  A    between atoms: _175  and  _176
REMARK   73  A    between atoms: _178  and  _180
REMARK   74  A    between atoms: _180  and  _181
REMARK   75  A    between atoms: _180  and  _183
REMARK   76  A    between atoms: _186  and  _188
REMARK   77  A    between atoms: _188  and  _189
REMARK   78  A    between atoms: _192  and  _194
REMARK   79  A    between atoms: _194  and  _195
REMARK   80  A    between atoms: _194  and  _197
REMARK   81  A    between atoms: _197  and  _198
REMARK   82  A    between atoms: _201  and  _203
REMARK   83  A    between atoms: _203  and  _204
REMARK   84  A    between atoms: _203  and  _206
REMARK   85  A    between atoms: _209  and  _211
REMARK   86  A    between atoms: _211  and  _212
REMARK   87  A    between atoms: _211  and  _214
REMARK   88  A    between atoms: _214  and  _215
REMARK   89  A    between atoms: _225  and  _227
REMARK   90  A    between atoms: _227  and  _228
REMARK   91  A    between atoms: _230  and  _232
REMARK   92  A    between atoms: _232  and  _233
REMARK   93  A    between atoms: _232  and  _235
REMARK   94  A    between atoms: _235  and  _236
REMARK   95  A    between atoms: _241  and  _242
REMARK   96  A    between atoms: _244  and  _246
REMARK   97  A    between atoms: _246  and  _247
REMARK   98  A    between atoms: _246  and  _249
REMARK   99  A    between atoms: _249  and  _250
REMARK  100  A    between atoms: _250  and  _251
REMARK  101  A    between atoms: _251  and  _252
REMARK  102  A    between atoms: _252  and  _253
REMARK  103  A    between atoms: _257  and  _259
REMARK  104  A    between atoms: _259  and  _260
REMARK  105  A    between atoms: _259  and  _262
REMARK  106  A    between atoms: _262  and  _263
REMARK  107  A    between atoms: _266  and  _268
REMARK  108  A    between atoms: _268  and  _269
REMARK  109  A    between atoms: _268  and  _271
REMARK  110  A    between atoms: _271  and  _272
REMARK  111  A    between atoms: _275  and  _277
REMARK  112  A    between atoms: _277  and  _278
REMARK  113  A    between atoms: _277  and  _280
REMARK  114  A    between atoms: _280  and  _281
REMARK  115  A    between atoms: _281  and  _282
REMARK  116  A    between atoms: _282  and  _283
REMARK  117  A    between atoms: _283  and  _284
REMARK  118  A    between atoms: _288  and  _290
REMARK  119  A    between atoms: _290  and  _291
REMARK  120  A    between atoms: _290  and  _293
REMARK  121  A    between atoms: _293  and  _294
REMARK  122  A    between atoms: _297  and  _299
REMARK  123  A    between atoms: _299  and  _300
REMARK  124  A    between atoms: _299  and  _302
REMARK  125  A    between atoms: _302  and  _303
REMARK  126  A    between atoms: _308  and  _309
REMARK  127  A    between atoms: _311  and  _313
REMARK  128  A    between atoms: _313  and  _314
REMARK  129  A    between atoms: _313  and  _316
REMARK  130  A    between atoms: _316  and  _317
REMARK  131  A    between atoms: _320  and  _322
REMARK  132  A    between atoms: _322  and  _323
REMARK  133  A    between atoms: _322  and  _325
REMARK  134  A    between atoms: _327  and  _329
REMARK  135  A    between atoms: _329  and  _330
REMARK  136  A    between atoms: _333  and  _335
REMARK  137  A    between atoms: _335  and  _336
REMARK  138  A    between atoms: _335  and  _338
REMARK  139  A    between atoms: _338  and  _339
REMARK  140  A    between atoms: _339  and  _340
REMARK  141  A    between atoms: _340  and  _341
REMARK  142  A    between atoms: _341  and  _342
REMARK  143  A    between atoms: _346  and  _348
REMARK  144  A    between atoms: _348  and  _349
REMARK  145  A    between atoms: _348  and  _351
REMARK  146  A    between atoms: _351  and  _352
REMARK  147  A    between atoms: _355  and  _357
REMARK  148  A    between atoms: _357  and  _358
REMARK  149  A    between atoms: _361  and  _363
REMARK  150  A    between atoms: _363  and  _364
REMARK  151  A    between atoms: _363  and  _366
REMARK  152  A    between atoms: _366  and  _367
REMARK  153  A    between atoms: _367  and  _490
REMARK  154  A    between atoms: _368  and  _370
REMARK  155  A    between atoms: _370  and  _371
REMARK  156  A    between atoms: _370  and  _373
REMARK  157  A    between atoms: _373  and  _374
REMARK  158  A    between atoms: _374  and  _375
REMARK  159  A    between atoms: _375  and  _376
REMARK  160  A    between atoms: _376  and  _377
REMARK  161  A    between atoms: _381  and  _383
REMARK  162  A    between atoms: _383  and  _384
REMARK  163  A    between atoms: _386  and  _388
REMARK  164  A    between atoms: _388  and  _389
REMARK  165  A    between atoms: _388  and  _391
REMARK  166  A    between atoms: _391  and  _392
REMARK  167  A    between atoms: _395  and  _397
REMARK  168  A    between atoms: _397  and  _398
REMARK  169  A    between atoms: _397  and  _400
REMARK  170  A    between atoms: _400  and  _401
REMARK  171  A    between atoms: _403  and  _405
REMARK  172  A    between atoms: _405  and  _406
REMARK  173  A    between atoms: _408  and  _410
REMARK  174  A    between atoms: _410  and  _411
REMARK  175  A    between atoms: _413  and  _415
REMARK  176  A    between atoms: _415  and  _416
REMARK  177  A    between atoms: _415  and  _418
REMARK  178  A    between atoms: _418  and  _419
REMARK  179  A    between atoms: _422  and  _424
REMARK  180  A    between atoms: _424  and  _425
REMARK  181  A    between atoms: _424  and  _427
REMARK  182  A    between atoms: _427  and  _428
REMARK  183  A    between atoms: _431  and  _433
REMARK  184  A    between atoms: _433  and  _434
REMARK  185  A    between atoms: _433  and  _436
REMARK  186  A    between atoms: _436  and  _437
REMARK  187  A    between atoms: _440  and  _442
REMARK  188  A    between atoms: _442  and  _443
REMARK  189  A    between atoms: _442  and  _445
REMARK  190  A    between atoms: _445  and  _446
REMARK  191  A    between atoms: _448  and  _450
REMARK  192  A    between atoms: _450  and  _451
REMARK  193  A    between atoms: _450  and  _453
REMARK  194  A    between atoms: _453  and  _454
REMARK  195  A    between atoms: _464  and  _466
REMARK  196  A    between atoms: _466  and  _467
REMARK  197  A    between atoms: _469  and  _471
REMARK  198  A    between atoms: _471  and  _472
REMARK  199  A    between atoms: _471  and  _474
REMARK  200  A    between atoms: _474  and  _475
REMARK  201  A    between atoms: _475  and  _476
REMARK  202  A    between atoms: _479  and  _481
REMARK  203  A    between atoms: _481  and  _482
REMARK  204  A    between atoms: _484  and  _486
REMARK  205  A    between atoms: _486  and  _487
REMARK  206  A    between atoms: _486  and  _489
REMARK  207  A    between atoms: _489  and  _490
REMARK  208  A    between atoms: _491  and  _493
REMARK  209  A    between atoms: _493  and  _494
REMARK  210  A    between atoms: _497  and  _499
REMARK  211  A    between atoms: _499  and  _500
REMARK  212  A    between atoms: _499  and  _502
REMARK  213  A    between atoms: _502  and  _503
REMARK  214  A    between atoms: _503  and  _504
REMARK  215  A    between atoms: _509  and  _511
REMARK  216  A    between atoms: _511  and  _512
REMARK  217  A    between atoms: _511  and  _514
REMARK  218  A    between atoms: _514  and  _515
REMARK  219  A    between atoms: _515  and  _516
REMARK  220  A    between atoms: _516  and  _517
REMARK  221  A    between atoms: _527  and  _528
REMARK  222  A    between atoms: _533  and  _535
REMARK  223  A    between atoms: _535  and  _536
REMARK  224  A    between atoms: _538  and  _540
REMARK  225  A    between atoms: _540  and  _541
REMARK  226  A    between atoms: _540  and  _543
REMARK  227  A    between atoms: _546  and  _548
REMARK  228  A    between atoms: _548  and  _549
REMARK  229  A    between atoms: _548  and  _551
REMARK  230  A    between atoms: _551  and  _552
REMARK  231  A    between atoms: _557  and  _558
REMARK  232  A    between atoms: _560  and  _562
REMARK  233  A    between atoms: _562  and  _563
REMARK  234  A    between atoms: _562  and  _565
REMARK  235  A    between atoms: _565  and  _566
REMARK                            x       y       z     vdW  Elec       q    Type
REMARK                         _______ _______ _______ _____ _____    ______ ____
ROOT
ATOM      1  O   HOH     1      51.187 -18.675  33.112  0.00  0.00    +0.000 OA
ENDROOT
TORSDOF 0
REMARK  Name = ../refined-set-2016/5e2p/5e2p_pocket.pdb
REMARK  235 active torsions:
REMARK  status: ('A' for Active; 'I' for Inactive)
REMARK    1  A    between atoms: _1  and  _5
REMARK    2  A    between atoms: _5  and  _6
REMARK    3  A    between atoms: _5  and  _8
REMARK    4  A    between atoms: _8  and  _9
REMARK    5  A    between atoms: _12  and  _14
REMARK    6  A    between atoms: _14  and  _15
REMARK    7  A    between atoms: _14  and  _17
REMARK    8  A    between atoms: _20  and  _22
REMARK    9  A    between atoms: _22  and  _23
REMARK   10  A    between atoms: _22  and  _25
REMARK   11  A    between atoms: _25  and  _26
REMARK   12  A    between atoms: _29  and  _31
REMARK   13  A    between atoms: _31  and  _32
REMARK   14  A    between atoms: _31  and  _34
REMARK   15  A    between atoms: _34  and  _35
REMARK   16  A    between atoms: _38  and  _40
REMARK   17  A    between atoms: _40  and  _41
REMARK   18  A    between atoms: _40  and  _43
REMARK   19  A    between atoms: _43  and  _44
REMARK   20  A    between atoms: _47  and  _49
REMARK   21  A    between atoms: _49  and  _50
REMARK   22  A    between atoms: _49  and  _52
REMARK   23  A    between atoms: _52  and  _53
REMARK   24  A    between atoms: _56  and  _58
REMARK   25  A    between atoms: _58  and  _59
REMARK   26  A    between atoms: _58  and  _61
REMARK   27  A    between atoms: _61  and  _62
REMARK   28  A    between atoms: _62  and  _63
REMARK   29  A    between atoms: _68  and  _70
REMARK   30  A    between atoms: _70  and  _71
REMARK   31  A    between atoms: _70  and  _73
REMARK   32  A    between atoms: _73  and  _74
REMARK   33  A    between atoms: _74  and  _75
REMARK   34  A    between atoms: _75  and  _76
REMARK   35  A    between atoms: _85  and  _87
REMARK   36  A    between atoms: _87  and  _88
REMARK   37  A    between atoms: _87  and  _90
REMARK   38  A    between atoms: _90  and  _91
REMARK   39  A    between atoms: _96  and  _98
REMARK   40  A    between atoms: _98  and  _99
REMARK   41  A    between atoms: _98  and  _101
REMARK   42  A    between atoms: _101  and  _102
REMARK   43  A    between atoms: _105  and  _107
REMARK   44  A    between atoms: _107  and  _108
REMARK   45  A    between atoms: _107  and  _110
REMARK   46  A    between atoms: _110  and  _111
REMARK   47  A    between atoms: _111  and  _146
REMARK   48  A    between atoms: _112  and  _114
REMARK   49  A    between atoms: _114  and  _115
REMARK   50  A    between atoms: _117  and  _119
REMARK   51  A    between atoms: _119  and  _120
REMARK   52  A    between atoms: _123  and  _125
REMARK   53  A    between atoms: _125  and  _126
REMARK   54  A    between atoms: _129  and  _131
REMARK   55  A    between atoms: _131  and  _132
REMARK   56  A    between atoms: _131  and  _134
REMARK   57  A    between atoms: _134  and  _135
REMARK   58  A    between atoms: _140  and  _142
REMARK   59  A    between atoms: _142  and  _143
REMARK   60  A    between atoms: _142  and  _145
REMARK   61  A    between atoms: _145  and  _146
REMARK   62  A    between atoms: _147  and  _149
REMARK   63  A    between atoms: _149  and  _150
REMARK   64  A    between atoms: _149  and  _152
REMARK   65  A    between atoms: _152  and  _153
REMARK   66  A    between atoms: _159  and  _161
REMARK   67  A    between atoms: _161  and  _162
REMARK   68  A    between atoms: _161  and  _164
REMARK   69  A    between atoms: _164  and  _165
REMARK   70  A    between atoms: _170  and  _171
REMARK   71  A    between atoms: _173  and  _175
REMARK   72  A    between atoms: _175  and  _176
REMARK   73  A    between atoms: _178  and  _180
REMARK   74  A    between atoms: _180  and  _181
REMARK   75  A    between atoms: _180  and  _183
REMARK   76  A    between atoms: _186  and  _188
REMARK   77  A    between atoms: _188  and  _189
REMARK   78  A    between atoms: _192  and  _194
REMARK   79  A    between atoms: _194  and  _195
REMARK   80  A    between atoms: _194  and  _197
REMARK   81  A    between atoms: _197  and  _198
REMARK   82  A    between atoms: _201  and  _203
REMARK   83  A    between atoms: _203  and  _204
REMARK   84  A    between atoms: _203  and  _206
REMARK   85  A    between atoms: _209  and  _211
REMARK   86  A    between atoms: _211  and  _212
REMARK   87  A    between atoms: _211  and  _214
REMARK   88  A    between atoms: _214  and  _215
REMARK   89  A    between atoms: _225  and  _227
REMARK   90  A    between atoms: _227  and  _228
REMARK   91  A    between atoms: _230  and  _232
REMARK   92  A    between atoms: _232  and  _233
REMARK   93  A    between atoms: _232  and  _235
REMARK   94  A    between atoms: _235  and  _236
REMARK   95  A    between atoms: _241  and  _242
REMARK   96  A    between atoms: _244  and  _246
REMARK   97  A    between atoms: _246  and  _247
REMARK   98  A    between atoms: _246  and  _249
REMARK   99  A    between atoms: _249  and  _250
REMARK  100  A    between atoms: _250  and  _251
REMARK  101  A    between atoms: _251  and  _252
REMARK  102  A    between atoms: _252  and  _253
REMARK  103  A    between atoms: _257  and  _259
REMARK  104  A    between atoms: _259  and  _260
REMARK  105  A    between atoms: _259  and  _262
REMARK  106  A    between atoms: _262  and  _263
REMARK  107  A    between atoms: _266  and  _268
REMARK  108  A    between atoms: _268  and  _269
REMARK  109  A    between atoms: _268  and  _271
REMARK  110  A    between atoms: _271  and  _272
REMARK  111  A    between atoms: _275  and  _277
REMARK  112  A    between atoms: _277  and  _278
REMARK  113  A    between atoms: _277  and  _280
REMARK  114  A    between atoms: _280  and  _281
REMARK  115  A    between atoms: _281  and  _282
REMARK  116  A    between atoms: _282  and  _283
REMARK  117  A    between atoms: _283  and  _284
REMARK  118  A    between atoms: _288  and  _290
REMARK  119  A    between atoms: _290  and  _291
REMARK  120  A    between atoms: _290  and  _293
REMARK  121  A    between atoms: _293  and  _294
REMARK  122  A    between atoms: _297  and  _299
REMARK  123  A    between atoms: _299  and  _300
REMARK  124  A    between atoms: _299  and  _302
REMARK  125  A    between atoms: _302  and  _303
REMARK  126  A    between atoms: _308  and  _309
REMARK  127  A    between atoms: _311  and  _313
REMARK  128  A    between atoms: _313  and  _314
REMARK  129  A    between atoms: _313  and  _316
REMARK  130  A    between atoms: _316  and  _317
REMARK  131  A    between atoms: _320  and  _322
REMARK  132  A    between atoms: _322  and  _323
REMARK  133  A    between atoms: _322  and  _325
REMARK  134  A    between atoms: _327  and  _329
REMARK  135  A    between atoms: _329  and  _330
REMARK  136  A    between atoms: _333  and  _335
REMARK  137  A    between atoms: _335  and  _336
REMARK  138  A    between atoms: _335  and  _338
REMARK  139  A    between atoms: _338  and  _339
REMARK  140  A    between atoms: _339  and  _340
REMARK  141  A    between atoms: _340  and  _341
REMARK  142  A    between atoms: _341  and  _342
REMARK  143  A    between atoms: _346  and  _348
REMARK  144  A    between atoms: _348  and  _349
REMARK  145  A    between atoms: _348  and  _351
REMARK  146  A    between atoms: _351  and  _352
REMARK  147  A    between atoms: _355  and  _357
REMARK  148  A    between atoms: _357  and  _358
REMARK  149  A    between atoms: _361  and  _363
REMARK  150  A    between atoms: _363  and  _364
REMARK  151  A    between atoms: _363  and  _366
REMARK  152  A    between atoms: _366  and  _367
REMARK  153  A    between atoms: _367  and  _490
REMARK  154  A    between atoms: _368  and  _370
REMARK  155  A    between atoms: _370  and  _371
REMARK  156  A    between atoms: _370  and  _373
REMARK  157  A    between atoms: _373  and  _374
REMARK  158  A    between atoms: _374  and  _375
REMARK  159  A    between atoms: _375  and  _376
REMARK  160  A    between atoms: _376  and  _377
REMARK  161  A    between atoms: _381  and  _383
REMARK  162  A    between atoms: _383  and  _384
REMARK  163  A    between atoms: _386  and  _388
REMARK  164  A    between atoms: _388  and  _389
REMARK  165  A    between atoms: _388  and  _391
REMARK  166  A    between atoms: _391  and  _392
REMARK  167  A    between atoms: _395  and  _397
REMARK  168  A    between atoms: _397  and  _398
REMARK  169  A    between atoms: _397  and  _400
REMARK  170  A    between atoms: _400  and  _401
REMARK  171  A    between atoms: _403  and  _405
REMARK  172  A    between atoms: _405  and  _406
REMARK  173  A    between atoms: _408  and  _410
REMARK  174  A    between atoms: _410  and  _411
REMARK  175  A    between atoms: _413  and  _415
REMARK  176  A    between atoms: _415  and  _416
REMARK  177  A    between atoms: _415  and  _418
REMARK  178  A    between atoms: _418  and  _419
REMARK  179  A    between atoms: _422  and  _424
REMARK  180  A    between atoms: _424  and  _425
REMARK  181  A    between atoms: _424  and  _427
REMARK  182  A    between atoms: _427  and  _428
REMARK  183  A    between atoms: _431  and  _433
REMARK  184  A    between atoms: _433  and  _434
REMARK  185  A    between atoms: _433  and  _436
REMARK  186  A    between atoms: _436  and  _437
REMARK  187  A    between atoms: _440  and  _442
REMARK  188  A    between atoms: _442  and  _443
REMARK  189  A    between atoms: _442  and  _445
REMARK  190  A    between atoms: _445  and  _446
REMARK  191  A    between atoms: _448  and  _450
REMARK  192  A    between atoms: _450  and  _451
REMARK  193  A    between atoms: _450  and  _453
REMARK  194  A    between atoms: _453  and  _454
REMARK  195  A    between atoms: _464  and  _466
REMARK  196  A    between atoms: _466  and  _467
REMARK  197  A    between atoms: _469  and  _471
REMARK  198  A    between atoms: _471  and  _472
REMARK  199  A    between atoms: _471  and  _474
REMARK  200  A    between atoms: _474  and  _475
REMARK  201  A    between atoms: _475  and  _476
REMARK  202  A    between atoms: _479  and  _481
REMARK  203  A    between atoms: _481  and  _482
REMARK  204  A    between atoms: _484  and  _486
REMARK  205  A    between atoms: _486  and  _487
REMARK  206  A    between atoms: _486  and  _489
REMARK  207  A    between atoms: _489  and  _490
REMARK  208  A    between atoms: _491  and  _493
REMARK  209  A    between atoms: _493  and  _494
REMARK  210  A    between atoms: _497  and  _499
REMARK  211  A    between atoms: _499  and  _500
REMARK  212  A    between atoms: _499  and  _502
REMARK  213  A    between atoms: _502  and  _503
REMARK  214  A    between atoms: _503  and  _504
REMARK  215  A    between atoms: _509  and  _511
REMARK  216  A    between atoms: _511  and  _512
REMARK  217  A    between atoms: _511  and  _514
REMARK  218  A    between atoms: _514  and  _515
REMARK  219  A    between atoms: _515  and  _516
REMARK  220  A    between atoms: _516  and  _517
REMARK  221  A    between atoms: _527  and  _528
REMARK  222  A    between atoms: _533  and  _535
REMARK  223  A    between atoms: _535  and  _536
REMARK  224  A    between atoms: _538  and  _540
REMARK  225  A    between atoms: _540  and  _541
REMARK  226  A    between atoms: _540  and  _543
REMARK  227  A    between atoms: _546  and  _548
REMARK  228  A    between atoms: _548  and  _549
REMARK  229  A    between atoms: _548  and  _551
REMARK  230  A    between atoms: _551  and  _552
REMARK  231  A    between atoms: _557  and  _558
REMARK  232  A    between atoms: _560  and  _562
REMARK  233  A    between atoms: _562  and  _563
REMARK  234  A    between atoms: _562  and  _565
REMARK  235  A    between atoms: _565  and  _566
REMARK                            x       y       z     vdW  Elec       q    Type
REMARK                         _______ _______ _______ _____ _____    ______ ____
ROOT
ATOM      1  O   HOH     1      41.691  -9.247  22.649  0.00  0.00    +0.000 OA
ENDROOT
TORSDOF 0
REMARK  Name = ../refined-set-2016/5e2p/5e2p_pocket.pdb
REMARK  235 active torsions:
REMARK  status: ('A' for Active; 'I' for Inactive)
REMARK    1  A    between atoms: _1  and  _5
REMARK    2  A    between atoms: _5  and  _6
REMARK    3  A    between atoms: _5  and  _8
REMARK    4  A    between atoms: _8  and  _9
REMARK    5  A    between atoms: _12  and  _14
REMARK    6  A    between atoms: _14  and  _15
REMARK    7  A    between atoms: _14  and  _17
REMARK    8  A    between atoms: _20  and  _22
REMARK    9  A    between atoms: _22  and  _23
REMARK   10  A    between atoms: _22  and  _25
REMARK   11  A    between atoms: _25  and  _26
REMARK   12  A    between atoms: _29  and  _31
REMARK   13  A    between atoms: _31  and  _32
REMARK   14  A    between atoms: _31  and  _34
REMARK   15  A    between atoms: _34  and  _35
REMARK   16  A    between atoms: _38  and  _40
REMARK   17  A    between atoms: _40  and  _41
REMARK   18  A    between atoms: _40  and  _43
REMARK   19  A    between atoms: _43  and  _44
REMARK   20  A    between atoms: _47  and  _49
REMARK   21  A    between atoms: _49  and  _50
REMARK   22  A    between atoms: _49  and  _52
REMARK   23  A    between atoms: _52  and  _53
REMARK   24  A    between atoms: _56  and  _58
REMARK   25  A    between atoms: _58  and  _59
REMARK   26  A    between atoms: _58  and  _61
REMARK   27  A    between atoms: _61  and  _62
REMARK   28  A    between atoms: _62  and  _63
REMARK   29  A    between atoms: _68  and  _70
REMARK   30  A    between atoms: _70  and  _71
REMARK   31  A    between atoms: _70  and  _73
REMARK   32  A    between atoms: _73  and  _74
REMARK   33  A    between atoms: _74  and  _75
REMARK   34  A    between atoms: _75  and  _76
REMARK   35  A    between atoms: _85  and  _87
REMARK   36  A    between atoms: _87  and  _88
REMARK   37  A    between atoms: _87  and  _90
REMARK   38  A    between atoms: _90  and  _91
REMARK   39  A    between atoms: _96  and  _98
REMARK   40  A    between atoms: _98  and  _99
REMARK   41  A    between atoms: _98  and  _101
REMARK   42  A    between atoms: _101  and  _102
REMARK   43  A    between atoms: _105  and  _107
REMARK   44  A    between atoms: _107  and  _108
REMARK   45  A    between atoms: _107  and  _110
REMARK   46  A    between atoms: _110  and  _111
REMARK   47  A    between atoms: _111  and  _146
REMARK   48  A    between atoms: _112  and  _114
REMARK   49  A    between atoms: _114  and  _115
REMARK   50  A    between atoms: _117  and  _119
REMARK   51  A    between atoms: _119  and  _120
REMARK   52  A    between atoms: _123  and  _125
REMARK   53  A    between atoms: _125  and  _126
REMARK   54  A    between atoms: _129  and  _131
REMARK   55  A    between atoms: _131  and  _132
REMARK   56  A    between atoms: _131  and  _134
REMARK   57  A    between atoms: _134  and  _135
REMARK   58  A    between atoms: _140  and  _142
REMARK   59  A    between atoms: _142  and  _143
REMARK   60  A    between atoms: _142  and  _145
REMARK   61  A    between atoms: _145  and  _146
REMARK   62  A    between atoms: _147  and  _149
REMARK   63  A    between atoms: _149  and  _150
REMARK   64  A    between atoms: _149  and  _152
REMARK   65  A    between atoms: _152  and  _153
REMARK   66  A    between atoms: _159  and  _161
REMARK   67  A    between atoms: _161  and  _162
REMARK   68  A    between atoms: _161  and  _164
REMARK   69  A    between atoms: _164  and  _165
REMARK   70  A    between atoms: _170  and  _171
REMARK   71  A    between atoms: _173  and  _175
REMARK   72  A    between atoms: _175  and  _176
REMARK   73  A    between atoms: _178  and  _180
REMARK   74  A    between atoms: _180  and  _181
REMARK   75  A    between atoms: _180  and  _183
REMARK   76  A    between atoms: _186  and  _188
REMARK   77  A    between atoms: _188  and  _189
REMARK   78  A    between atoms: _192  and  _194
REMARK   79  A    between atoms: _194  and  _195
REMARK   80  A    between atoms: _194  and  _197
REMARK   81  A    between atoms: _197  and  _198
REMARK   82  A    between atoms: _201  and  _203
REMARK   83  A    between atoms: _203  and  _204
REMARK   84  A    between atoms: _203  and  _206
REMARK   85  A    between atoms: _209  and  _211
REMARK   86  A    between atoms: _211  and  _212
REMARK   87  A    between atoms: _211  and  _214
REMARK   88  A    between atoms: _214  and  _215
REMARK   89  A    between atoms: _225  and  _227
REMARK   90  A    between atoms: _227  and  _228
REMARK   91  A    between atoms: _230  and  _232
REMARK   92  A    between atoms: _232  and  _233
REMARK   93  A    between atoms: _232  and  _235
REMARK   94  A    between atoms: _235  and  _236
REMARK   95  A    between atoms: _241  and  _242
REMARK   96  A    between atoms: _244  and  _246
REMARK   97  A    between atoms: _246  and  _247
REMARK   98  A    between atoms: _246  and  _249
REMARK   99  A    between atoms: _249  and  _250
REMARK  100  A    between atoms: _250  and  _251
REMARK  101  A    between atoms: _251  and  _252
REMARK  102  A    between atoms: _252  and  _253
REMARK  103  A    between atoms: _257  and  _259
REMARK  104  A    between atoms: _259  and  _260
REMARK  105  A    between atoms: _259  and  _262
REMARK  106  A    between atoms: _262  and  _263
REMARK  107  A    between atoms: _266  and  _268
REMARK  108  A    between atoms: _268  and  _269
REMARK  109  A    between atoms: _268  and  _271
REMARK  110  A    between atoms: _271  and  _272
REMARK  111  A    between atoms: _275  and  _277
REMARK  112  A    between atoms: _277  and  _278
REMARK  113  A    between atoms: _277  and  _280
REMARK  114  A    between atoms: _280  and  _281
REMARK  115  A    between atoms: _281  and  _282
REMARK  116  A    between atoms: _282  and  _283
REMARK  117  A    between atoms: _283  and  _284
REMARK  118  A    between atoms: _288  and  _290
REMARK  119  A    between atoms: _290  and  _291
REMARK  120  A    between atoms: _290  and  _293
REMARK  121  A    between atoms: _293  and  _294
REMARK  122  A    between atoms: _297  and  _299
REMARK  123  A    between atoms: _299  and  _300
REMARK  124  A    between atoms: _299  and  _302
REMARK  125  A    between atoms: _302  and  _303
REMARK  126  A    between atoms: _308  and  _309
REMARK  127  A    between atoms: _311  and  _313
REMARK  128  A    between atoms: _313  and  _314
REMARK  129  A    between atoms: _313  and  _316
REMARK  130  A    between atoms: _316  and  _317
REMARK  131  A    between atoms: _320  and  _322
REMARK  132  A    between atoms: _322  and  _323
REMARK  133  A    between atoms: _322  and  _325
REMARK  134  A    between atoms: _327  and  _329
REMARK  135  A    between atoms: _329  and  _330
REMARK  136  A    between atoms: _333  and  _335
REMARK  137  A    between atoms: _335  and  _336
REMARK  138  A    between atoms: _335  and  _338
REMARK  139  A    between atoms: _338  and  _339
REMARK  140  A    between atoms: _339  and  _340
REMARK  141  A    between atoms: _340  and  _341
REMARK  142  A    between atoms: _341  and  _342
REMARK  143  A    between atoms: _346  and  _348
REMARK  144  A    between atoms: _348  and  _349
REMARK  145  A    between atoms: _348  and  _351
REMARK  146  A    between atoms: _351  and  _352
REMARK  147  A    between atoms: _355  and  _357
REMARK  148  A    between atoms: _357  and  _358
REMARK  149  A    between atoms: _361  and  _363
REMARK  150  A    between atoms: _363  and  _364
REMARK  151  A    between atoms: _363  and  _366
REMARK  152  A    between atoms: _366  and  _367
REMARK  153  A    between atoms: _367  and  _490
REMARK  154  A    between atoms: _368  and  _370
REMARK  155  A    between atoms: _370  and  _371
REMARK  156  A    between atoms: _370  and  _373
REMARK  157  A    between atoms: _373  and  _374
REMARK  158  A    between atoms: _374  and  _375
REMARK  159  A    between atoms: _375  and  _376
REMARK  160  A    between atoms: _376  and  _377
REMARK  161  A    between atoms: _381  and  _383
REMARK  162  A    between atoms: _383  and  _384
REMARK  163  A    between atoms: _386  and  _388
REMARK  164  A    between atoms: _388  and  _389
REMARK  165  A    between atoms: _388  and  _391
REMARK  166  A    between atoms: _391  and  _392
REMARK  167  A    between atoms: _395  and  _397
REMARK  168  A    between atoms: _397  and  _398
REMARK  169  A    between atoms: _397  and  _400
REMARK  170  A    between atoms: _400  and  _401
REMARK  171  A    between atoms: _403  and  _405
REMARK  172  A    between atoms: _405  and  _406
REMARK  173  A    between atoms: _408  and  _410
REMARK  174  A    between atoms: _410  and  _411
REMARK  175  A    between atoms: _413  and  _415
REMARK  176  A    between atoms: _415  and  _416
REMARK  177  A    between atoms: _415  and  _418
REMARK  178  A    between atoms: _418  and  _419
REMARK  179  A    between atoms: _422  and  _424
REMARK  180  A    between atoms: _424  and  _425
REMARK  181  A    between atoms: _424  and  _427
REMARK  182  A    between atoms: _427  and  _428
REMARK  183  A    between atoms: _431  and  _433
REMARK  184  A    between atoms: _433  and  _434
REMARK  185  A    between atoms: _433  and  _436
REMARK  186  A    between atoms: _436  and  _437
REMARK  187  A    between atoms: _440  and  _442
REMARK  188  A    between atoms: _442  and  _443
REMARK  189  A    between atoms: _442  and  _445
REMARK  190  A    between atoms: _445  and  _446
REMARK  191  A    between atoms: _448  and  _450
REMARK  192  A    between atoms: _450  and  _451
REMARK  193  A    between atoms: _450  and  _453
REMARK  194  A    between atoms: _453  and  _454
REMARK  195  A    between atoms: _464  and  _466
REMARK  196  A    between atoms: _466  and  _467
REMARK  197  A    between atoms: _469  and  _471
REMARK  198  A    between atoms: _471  and  _472
REMARK  199  A    between atoms: _471  and  _474
REMARK  200  A    between atoms: _474  and  _475
REMARK  201  A    between atoms: _475  and  _476
REMARK  202  A    between atoms: _479  and  _481
REMARK  203  A    between atoms: _481  and  _482
REMARK  204  A    between atoms: _484  and  _486
REMARK  205  A    between atoms: _486  and  _487
REMARK  206  A    between atoms: _486  and  _489
REMARK  207  A    between atoms: _489  and  _490
REMARK  208  A    between atoms: _491  and  _493
REMARK  209  A    between atoms: _493  and  _494
REMARK  210  A    between atoms: _497  and  _499
REMARK  211  A    between atoms: _499  and  _500
REMARK  212  A    between atoms: _499  and  _502
REMARK  213  A    between atoms: _502  and  _503
REMARK  214  A    between atoms: _503  and  _504
REMARK  215  A    between atoms: _509  and  _511
REMARK  216  A    between atoms: _511  and  _512
REMARK  217  A    between atoms: _511  and  _514
REMARK  218  A    between atoms: _514  and  _515
REMARK  219  A    between atoms: _515  and  _516
REMARK  220  A    between atoms: _516  and  _517
REMARK  221  A    between atoms: _527  and  _528
REMARK  222  A    between atoms: _533  and  _535
REMARK  223  A    between atoms: _535  and  _536
REMARK  224  A    between atoms: _538  and  _540
REMARK  225  A    between atoms: _540  and  _541
REMARK  226  A    between atoms: _540  and  _543
REMARK  227  A    between atoms: _546  and  _548
REMARK  228  A    between atoms: _548  and  _549
REMARK  229  A    between atoms: _548  and  _551
REMARK  230  A    between atoms: _551  and  _552
REMARK  231  A    between atoms: _557  and  _558
REMARK  232  A    between atoms: _560  and  _562
REMARK  233  A    between atoms: _562  and  _563
REMARK  234  A    between atoms: _562  and  _565
REMARK  235  A    between atoms: _565  and  _566
REMARK                            x       y       z     vdW  Elec       q    Type
REMARK                         _______ _______ _______ _____ _____    ______ ____
ROOT
ATOM      1  O   HOH     1      36.374 -17.747  24.488  0.00  0.00    +0.000 OA
ENDROOT
TORSDOF 0
REMARK  Name = ../refined-set-2016/5e2p/5e2p_pocket.pdb
REMARK  235 active torsions:
REMARK  status: ('A' for Active; 'I' for Inactive)
REMARK    1  A    between atoms: _1  and  _5
REMARK    2  A    between atoms: _5  and  _6
REMARK    3  A    between atoms: _5  and  _8
REMARK    4  A    between atoms: _8  and  _9
REMARK    5  A    between atoms: _12  and  _14
REMARK    6  A    between atoms: _14  and  _15
REMARK    7  A    between atoms: _14  and  _17
REMARK    8  A    between atoms: _20  and  _22
REMARK    9  A    between atoms: _22  and  _23
REMARK   10  A    between atoms: _22  and  _25
REMARK   11  A    between atoms: _25  and  _26
REMARK   12  A    between atoms: _29  and  _31
REMARK   13  A    between atoms: _31  and  _32
REMARK   14  A    between atoms: _31  and  _34
REMARK   15  A    between atoms: _34  and  _35
REMARK   16  A    between atoms: _38  and  _40
REMARK   17  A    between atoms: _40  and  _41
REMARK   18  A    between atoms: _40  and  _43
REMARK   19  A    between atoms: _43  and  _44
REMARK   20  A    between atoms: _47  and  _49
REMARK   21  A    between atoms: _49  and  _50
REMARK   22  A    between atoms: _49  and  _52
REMARK   23  A    between atoms: _52  and  _53
REMARK   24  A    between atoms: _56  and  _58
REMARK   25  A    between atoms: _58  and  _59
REMARK   26  A    between atoms: _58  and  _61
REMARK   27  A    between atoms: _61  and  _62
REMARK   28  A    between atoms: _62  and  _63
REMARK   29  A    between atoms: _68  and  _70
REMARK   30  A    between atoms: _70  and  _71
REMARK   31  A    between atoms: _70  and  _73
REMARK   32  A    between atoms: _73  and  _74
REMARK   33  A    between atoms: _74  and  _75
REMARK   34  A    between atoms: _75  and  _76
REMARK   35  A    between atoms: _85  and  _87
REMARK   36  A    between atoms: _87  and  _88
REMARK   37  A    between atoms: _87  and  _90
REMARK   38  A    between atoms: _90  and  _91
REMARK   39  A    between atoms: _96  and  _98
REMARK   40  A    between atoms: _98  and  _99
REMARK   41  A    between atoms: _98  and  _101
REMARK   42  A    between atoms: _101  and  _102
REMARK   43  A    between atoms: _105  and  _107
REMARK   44  A    between atoms: _107  and  _108
REMARK   45  A    between atoms: _107  and  _110
REMARK   46  A    between atoms: _110  and  _111
REMARK   47  A    between atoms: _111  and  _146
REMARK   48  A    between atoms: _112  and  _114
REMARK   49  A    between atoms: _114  and  _115
REMARK   50  A    between atoms: _117  and  _119
REMARK   51  A    between atoms: _119  and  _120
REMARK   52  A    between atoms: _123  and  _125
REMARK   53  A    between atoms: _125  and  _126
REMARK   54  A    between atoms: _129  and  _131
REMARK   55  A    between atoms: _131  and  _132
REMARK   56  A    between atoms: _131  and  _134
REMARK   57  A    between atoms: _134  and  _135
REMARK   58  A    between atoms: _140  and  _142
REMARK   59  A    between atoms: _142  and  _143
REMARK   60  A    between atoms: _142  and  _145
REMARK   61  A    between atoms: _145  and  _146
REMARK   62  A    between atoms: _147  and  _149
REMARK   63  A    between atoms: _149  and  _150
REMARK   64  A    between atoms: _149  and  _152
REMARK   65  A    between atoms: _152  and  _153
REMARK   66  A    between atoms: _159  and  _161
REMARK   67  A    between atoms: _161  and  _162
REMARK   68  A    between atoms: _161  and  _164
REMARK   69  A    between atoms: _164  and  _165
REMARK   70  A    between atoms: _170  and  _171
REMARK   71  A    between atoms: _173  and  _175
REMARK   72  A    between atoms: _175  and  _176
REMARK   73  A    between atoms: _178  and  _180
REMARK   74  A    between atoms: _180  and  _181
REMARK   75  A    between atoms: _180  and  _183
REMARK   76  A    between atoms: _186  and  _188
REMARK   77  A    between atoms: _188  and  _189
REMARK   78  A    between atoms: _192  and  _194
REMARK   79  A    between atoms: _194  and  _195
REMARK   80  A    between atoms: _194  and  _197
REMARK   81  A    between atoms: _197  and  _198
REMARK   82  A    between atoms: _201  and  _203
REMARK   83  A    between atoms: _203  and  _204
REMARK   84  A    between atoms: _203  and  _206
REMARK   85  A    between atoms: _209  and  _211
REMARK   86  A    between atoms: _211  and  _212
REMARK   87  A    between atoms: _211  and  _214
REMARK   88  A    between atoms: _214  and  _215
REMARK   89  A    between atoms: _225  and  _227
REMARK   90  A    between atoms: _227  and  _228
REMARK   91  A    between atoms: _230  and  _232
REMARK   92  A    between atoms: _232  and  _233
REMARK   93  A    between atoms: _232  and  _235
REMARK   94  A    between atoms: _235  and  _236
REMARK   95  A    between atoms: _241  and  _242
REMARK   96  A    between atoms: _244  and  _246
REMARK   97  A    between atoms: _246  and  _247
REMARK   98  A    between atoms: _246  and  _249
REMARK   99  A    between atoms: _249  and  _250
REMARK  100  A    between atoms: _250  and  _251
REMARK  101  A    between atoms: _251  and  _252
REMARK  102  A    between atoms: _252  and  _253
REMARK  103  A    between atoms: _257  and  _259
REMARK  104  A    between atoms: _259  and  _260
REMARK  105  A    between atoms: _259  and  _262
REMARK  106  A    between atoms: _262  and  _263
REMARK  107  A    between atoms: _266  and  _268
REMARK  108  A    between atoms: _268  and  _269
REMARK  109  A    between atoms: _268  and  _271
REMARK  110  A    between atoms: _271  and  _272
REMARK  111  A    between atoms: _275  and  _277
REMARK  112  A    between atoms: _277  and  _278
REMARK  113  A    between atoms: _277  and  _280
REMARK  114  A    between atoms: _280  and  _281
REMARK  115  A    between atoms: _281  and  _282
REMARK  116  A    between atoms: _282  and  _283
REMARK  117  A    between atoms: _283  and  _284
REMARK  118  A    between atoms: _288  and  _290
REMARK  119  A    between atoms: _290  and  _291
REMARK  120  A    between atoms: _290  and  _293
REMARK  121  A    between atoms: _293  and  _294
REMARK  122  A    between atoms: _297  and  _299
REMARK  123  A    between atoms: _299  and  _300
REMARK  124  A    between atoms: _299  and  _302
REMARK  125  A    between atoms: _302  and  _303
REMARK  126  A    between atoms: _308  and  _309
REMARK  127  A    between atoms: _311  and  _313
REMARK  128  A    between atoms: _313  and  _314
REMARK  129  A    between atoms: _313  and  _316
REMARK  130  A    between atoms: _316  and  _317
REMARK  131  A    between atoms: _320  and  _322
REMARK  132  A    between atoms: _322  and  _323
REMARK  133  A    between atoms: _322  and  _325
REMARK  134  A    between atoms: _327  and  _329
REMARK  135  A    between atoms: _329  and  _330
REMARK  136  A    between atoms: _333  and  _335
REMARK  137  A    between atoms: _335  and  _336
REMARK  138  A    between atoms: _335  and  _338
REMARK  139  A    between atoms: _338  and  _339
REMARK  140  A    between atoms: _339  and  _340
REMARK  141  A    between atoms: _340  and  _341
REMARK  142  A    between atoms: _341  and  _342
REMARK  143  A    between atoms: _346  and  _348
REMARK  144  A    between atoms: _348  and  _349
REMARK  145  A    between atoms: _348  and  _351
REMARK  146  A    between atoms: _351  and  _352
REMARK  147  A    between atoms: _355  and  _357
REMARK  148  A    between atoms: _357  and  _358
REMARK  149  A    between atoms: _361  and  _363
REMARK  150  A    between atoms: _363  and  _364
REMARK  151  A    between atoms: _363  and  _366
REMARK  152  A    between atoms: _366  and  _367
REMARK  153  A    between atoms: _367  and  _490
REMARK  154  A    between atoms: _368  and  _370
REMARK  155  A    between atoms: _370  and  _371
REMARK  156  A    between atoms: _370  and  _373
REMARK  157  A    between atoms: _373  and  _374
REMARK  158  A    between atoms: _374  and  _375
REMARK  159  A    between atoms: _375  and  _376
REMARK  160  A    between atoms: _376  and  _377
REMARK  161  A    between atoms: _381  and  _383
REMARK  162  A    between atoms: _383  and  _384
REMARK  163  A    between atoms: _386  and  _388
REMARK  164  A    between atoms: _388  and  _389
REMARK  165  A    between atoms: _388  and  _391
REMARK  166  A    between atoms: _391  and  _392
REMARK  167  A    between atoms: _395  and  _397
REMARK  168  A    between atoms: _397  and  _398
REMARK  169  A    between atoms: _397  and  _400
REMARK  170  A    between atoms: _400  and  _401
REMARK  171  A    between atoms: _403  and  _405
REMARK  172  A    between atoms: _405  and  _406
REMARK  173  A    between atoms: _408  and  _410
REMARK  174  A    between atoms: _410  and  _411
REMARK  175  A    between atoms: _413  and  _415
REMARK  176  A    between atoms: _415  and  _416
REMARK  177  A    between atoms: _415  and  _418
REMARK  178  A    between atoms: _418  and  _419
REMARK  179  A    between atoms: _422  and  _424
REMARK  180  A    between atoms: _424  and  _425
REMARK  181  A    between atoms: _424  and  _427
REMARK  182  A    between atoms: _427  and  _428
REMARK  183  A    between atoms: _431  and  _433
REMARK  184  A    between atoms: _433  and  _434
REMARK  185  A    between atoms: _433  and  _436
REMARK  186  A    between atoms: _436  and  _437
REMARK  187  A    between atoms: _440  and  _442
REMARK  188  A    between atoms: _442  and  _443
REMARK  189  A    between atoms: _442  and  _445
REMARK  190  A    between atoms: _445  and  _446
REMARK  191  A    between atoms: _448  and  _450
REMARK  192  A    between atoms: _450  and  _451
REMARK  193  A    between atoms: _450  and  _453
REMARK  194  A    between atoms: _453  and  _454
REMARK  195  A    between atoms: _464  and  _466
REMARK  196  A    between atoms: _466  and  _467
REMARK  197  A    between atoms: _469  and  _471
REMARK  198  A    between atoms: _471  and  _472
REMARK  199  A    between atoms: _471  and  _474
REMARK  200  A    between atoms: _474  and  _475
REMARK  201  A    between atoms: _475  and  _476
REMARK  202  A    between atoms: _479  and  _481
REMARK  203  A    between atoms: _481  and  _482
REMARK  204  A    between atoms: _484  and  _486
REMARK  205  A    between atoms: _486  and  _487
REMARK  206  A    between atoms: _486  and  _489
REMARK  207  A    between atoms: _489  and  _490
REMARK  208  A    between atoms: _491  and  _493
REMARK  209  A    between atoms: _493  and  _494
REMARK  210  A    between atoms: _497  and  _499
REMARK  211  A    between atoms: _499  and  _500
REMARK  212  A    between atoms: _499  and  _502
REMARK  213  A    between atoms: _502  and  _503
REMARK  214  A    between atoms: _503  and  _504
REMARK  215  A    between atoms: _509  and  _511
REMARK  216  A    between atoms: _511  and  _512
REMARK  217  A    between atoms: _511  and  _514
REMARK  218  A    between atoms: _514  and  _515
REMARK  219  A    between atoms: _515  and  _516
REMARK  220  A    between atoms: _516  and  _517
REMARK  221  A    between atoms: _527  and  _528
REMARK  222  A    between atoms: _533  and  _535
REMARK  223  A    between atoms: _535  and  _536
REMARK  224  A    between atoms: _538  and  _540
REMARK  225  A    between atoms: _540  and  _541
REMARK  226  A    between atoms: _540  and  _543
REMARK  227  A    between atoms: _546  and  _548
REMARK  228  A    between atoms: _548  and  _549
REMARK  229  A    between atoms: _548  and  _551
REMARK  230  A    between atoms: _551  and  _552
REMARK  231  A    between atoms: _557  and  _558
REMARK  232  A    between atoms: _560  and  _562
REMARK  233  A    between atoms: _562  and  _563
REMARK  234  A    between atoms: _562  and  _565
REMARK  235  A    between atoms: _565  and  _566
REMARK                            x       y       z     vdW  Elec       q    Type
REMARK                         _______ _______ _______ _____ _____    ______ ____
ROOT
ATOM      1  O   HOH     1      46.320 -15.173  21.641  0.00  0.00    +0.000 OA
ENDROOT
TORSDOF 0
REMARK  Name = ../refined-set-2016/5e2p/5e2p_pocket.pdb
REMARK  235 active torsions:
REMARK  status: ('A' for Active; 'I' for Inactive)
REMARK    1  A    between atoms: _1  and  _5
REMARK    2  A    between atoms: _5  and  _6
REMARK    3  A    between atoms: _5  and  _8
REMARK    4  A    between atoms: _8  and  _9
REMARK    5  A    between atoms: _12  and  _14
REMARK    6  A    between atoms: _14  and  _15
REMARK    7  A    between atoms: _14  and  _17
REMARK    8  A    between atoms: _20  and  _22
REMARK    9  A    between atoms: _22  and  _23
REMARK   10  A    between atoms: _22  and  _25
REMARK   11  A    between atoms: _25  and  _26
REMARK   12  A    between atoms: _29  and  _31
REMARK   13  A    between atoms: _31  and  _32
REMARK   14  A    between atoms: _31  and  _34
REMARK   15  A    between atoms: _34  and  _35
REMARK   16  A    between atoms: _38  and  _40
REMARK   17  A    between atoms: _40  and  _41
REMARK   18  A    between atoms: _40  and  _43
REMARK   19  A    between atoms: _43  and  _44
REMARK   20  A    between atoms: _47  and  _49
REMARK   21  A    between atoms: _49  and  _50
REMARK   22  A    between atoms: _49  and  _52
REMARK   23  A    between atoms: _52  and  _53
REMARK   24  A    between atoms: _56  and  _58
REMARK   25  A    between atoms: _58  and  _59
REMARK   26  A    between atoms: _58  and  _61
REMARK   27  A    between atoms: _61  and  _62
REMARK   28  A    between atoms: _62  and  _63
REMARK   29  A    between atoms: _68  and  _70
REMARK   30  A    between atoms: _70  and  _71
REMARK   31  A    between atoms: _70  and  _73
REMARK   32  A    between atoms: _73  and  _74
REMARK   33  A    between atoms: _74  and  _75
REMARK   34  A    between atoms: _75  and  _76
REMARK   35  A    between atoms: _85  and  _87
REMARK   36  A    between atoms: _87  and  _88
REMARK   37  A    between atoms: _87  and  _90
REMARK   38  A    between atoms: _90  and  _91
REMARK   39  A    between atoms: _96  and  _98
REMARK   40  A    between atoms: _98  and  _99
REMARK   41  A    between atoms: _98  and  _101
REMARK   42  A    between atoms: _101  and  _102
REMARK   43  A    between atoms: _105  and  _107
REMARK   44  A    between atoms: _107  and  _108
REMARK   45  A    between atoms: _107  and  _110
REMARK   46  A    between atoms: _110  and  _111
REMARK   47  A    between atoms: _111  and  _146
REMARK   48  A    between atoms: _112  and  _114
REMARK   49  A    between atoms: _114  and  _115
REMARK   50  A    between atoms: _117  and  _119
REMARK   51  A    between atoms: _119  and  _120
REMARK   52  A    between atoms: _123  and  _125
REMARK   53  A    between atoms: _125  and  _126
REMARK   54  A    between atoms: _129  and  _131
REMARK   55  A    between atoms: _131  and  _132
REMARK   56  A    between atoms: _131  and  _134
REMARK   57  A    between atoms: _134  and  _135
REMARK   58  A    between atoms: _140  and  _142
REMARK   59  A    between atoms: _142  and  _143
REMARK   60  A    between atoms: _142  and  _145
REMARK   61  A    between atoms: _145  and  _146
REMARK   62  A    between atoms: _147  and  _149
REMARK   63  A    between atoms: _149  and  _150
REMARK   64  A    between atoms: _149  and  _152
REMARK   65  A    between atoms: _152  and  _153
REMARK   66  A    between atoms: _159  and  _161
REMARK   67  A    between atoms: _161  and  _162
REMARK   68  A    between atoms: _161  and  _164
REMARK   69  A    between atoms: _164  and  _165
REMARK   70  A    between atoms: _170  and  _171
REMARK   71  A    between atoms: _173  and  _175
REMARK   72  A    between atoms: _175  and  _176
REMARK   73  A    between atoms: _178  and  _180
REMARK   74  A    between atoms: _180  and  _181
REMARK   75  A    between atoms: _180  and  _183
REMARK   76  A    between atoms: _186  and  _188
REMARK   77  A    between atoms: _188  and  _189
REMARK   78  A    between atoms: _192  and  _194
REMARK   79  A    between atoms: _194  and  _195
REMARK   80  A    between atoms: _194  and  _197
REMARK   81  A    between atoms: _197  and  _198
REMARK   82  A    between atoms: _201  and  _203
REMARK   83  A    between atoms: _203  and  _204
REMARK   84  A    between atoms: _203  and  _206
REMARK   85  A    between atoms: _209  and  _211
REMARK   86  A    between atoms: _211  and  _212
REMARK   87  A    between atoms: _211  and  _214
REMARK   88  A    between atoms: _214  and  _215
REMARK   89  A    between atoms: _225  and  _227
REMARK   90  A    between atoms: _227  and  _228
REMARK   91  A    between atoms: _230  and  _232
REMARK   92  A    between atoms: _232  and  _233
REMARK   93  A    between atoms: _232  and  _235
REMARK   94  A    between atoms: _235  and  _236
REMARK   95  A    between atoms: _241  and  _242
REMARK   96  A    between atoms: _244  and  _246
REMARK   97  A    between atoms: _246  and  _247
REMARK   98  A    between atoms: _246  and  _249
REMARK   99  A    between atoms: _249  and  _250
REMARK  100  A    between atoms: _250  and  _251
REMARK  101  A    between atoms: _251  and  _252
REMARK  102  A    between atoms: _252  and  _253
REMARK  103  A    between atoms: _257  and  _259
REMARK  104  A    between atoms: _259  and  _260
REMARK  105  A    between atoms: _259  and  _262
REMARK  106  A    between atoms: _262  and  _263
REMARK  107  A    between atoms: _266  and  _268
REMARK  108  A    between atoms: _268  and  _269
REMARK  109  A    between atoms: _268  and  _271
REMARK  110  A    between atoms: _271  and  _272
REMARK  111  A    between atoms: _275  and  _277
REMARK  112  A    between atoms: _277  and  _278
REMARK  113  A    between atoms: _277  and  _280
REMARK  114  A    between atoms: _280  and  _281
REMARK  115  A    between atoms: _281  and  _282
REMARK  116  A    between atoms: _282  and  _283
REMARK  117  A    between atoms: _283  and  _284
REMARK  118  A    between atoms: _288  and  _290
REMARK  119  A    between atoms: _290  and  _291
REMARK  120  A    between atoms: _290  and  _293
REMARK  121  A    between atoms: _293  and  _294
REMARK  122  A    between atoms: _297  and  _299
REMARK  123  A    between atoms: _299  and  _300
REMARK  124  A    between atoms: _299  and  _302
REMARK  125  A    between atoms: _302  and  _303
REMARK  126  A    between atoms: _308  and  _309
REMARK  127  A    between atoms: _311  and  _313
REMARK  128  A    between atoms: _313  and  _314
REMARK  129  A    between atoms: _313  and  _316
REMARK  130  A    between atoms: _316  and  _317
REMARK  131  A    between atoms: _320  and  _322
REMARK  132  A    between atoms: _322  and  _323
REMARK  133  A    between atoms: _322  and  _325
REMARK  134  A    between atoms: _327  and  _329
REMARK  135  A    between atoms: _329  and  _330
REMARK  136  A    between atoms: _333  and  _335
REMARK  137  A    between atoms: _335  and  _336
REMARK  138  A    between atoms: _335  and  _338
REMARK  139  A    between atoms: _338  and  _339
REMARK  140  A    between atoms: _339  and  _340
REMARK  141  A    between atoms: _340  and  _341
REMARK  142  A    between atoms: _341  and  _342
REMARK  143  A    between atoms: _346  and  _348
REMARK  144  A    between atoms: _348  and  _349
REMARK  145  A    between atoms: _348  and  _351
REMARK  146  A    between atoms: _351  and  _352
REMARK  147  A    between atoms: _355  and  _357
REMARK  148  A    between atoms: _357  and  _358
REMARK  149  A    between atoms: _361  and  _363
REMARK  150  A    between atoms: _363  and  _364
REMARK  151  A    between atoms: _363  and  _366
REMARK  152  A    between atoms: _366  and  _367
REMARK  153  A    between atoms: _367  and  _490
REMARK  154  A    between atoms: _368  and  _370
REMARK  155  A    between atoms: _370  and  _371
REMARK  156  A    between atoms: _370  and  _373
REMARK  157  A    between atoms: _373  and  _374
REMARK  158  A    between atoms: _374  and  _375
REMARK  159  A    between atoms: _375  and  _376
REMARK  160  A    between atoms: _376  and  _377
REMARK  161  A    between atoms: _381  and  _383
REMARK  162  A    between atoms: _383  and  _384
REMARK  163  A    between atoms: _386  and  _388
REMARK  164  A    between atoms: _388  and  _389
REMARK  165  A    between atoms: _388  and  _391
REMARK  166  A    between atoms: _391  and  _392
REMARK  167  A    between atoms: _395  and  _397
REMARK  168  A    between atoms: _397  and  _398
REMARK  169  A    between atoms: _397  and  _400
REMARK  170  A    between atoms: _400  and  _401
REMARK  171  A    between atoms: _403  and  _405
REMARK  172  A    between atoms: _405  and  _406
REMARK  173  A    between atoms: _408  and  _410
REMARK  174  A    between atoms: _410  and  _411
REMARK  175  A    between atoms: _413  and  _415
REMARK  176  A    between atoms: _415  and  _416
REMARK  177  A    between atoms: _415  and  _418
REMARK  178  A    between atoms: _418  and  _419
REMARK  179  A    between atoms: _422  and  _424
REMARK  180  A    between atoms: _424  and  _425
REMARK  181  A    between atoms: _424  and  _427
REMARK  182  A    between atoms: _427  and  _428
REMARK  183  A    between atoms: _431  and  _433
REMARK  184  A    between atoms: _433  and  _434
REMARK  185  A    between atoms: _433  and  _436
REMARK  186  A    between atoms: _436  and  _437
REMARK  187  A    between atoms: _440  and  _442
REMARK  188  A    between atoms: _442  and  _443
REMARK  189  A    between atoms: _442  and  _445
REMARK  190  A    between atoms: _445  and  _446
REMARK  191  A    between atoms: _448  and  _450
REMARK  192  A    between atoms: _450  and  _451
REMARK  193  A    between atoms: _450  and  _453
REMARK  194  A    between atoms: _453  and  _454
REMARK  195  A    between atoms: _464  and  _466
REMARK  196  A    between atoms: _466  and  _467
REMARK  197  A    between atoms: _469  and  _471
REMARK  198  A    between atoms: _471  and  _472
REMARK  199  A    between atoms: _471  and  _474
REMARK  200  A    between atoms: _474  and  _475
REMARK  201  A    between atoms: _475  and  _476
REMARK  202  A    between atoms: _479  and  _481
REMARK  203  A    between atoms: _481  and  _482
REMARK  204  A    between atoms: _484  and  _486
REMARK  205  A    between atoms: _486  and  _487
REMARK  206  A    between atoms: _486  and  _489
REMARK  207  A    between atoms: _489  and  _490
REMARK  208  A    between atoms: _491  and  _493
REMARK  209  A    between atoms: _493  and  _494
REMARK  210  A    between atoms: _497  and  _499
REMARK  211  A    between atoms: _499  and  _500
REMARK  212  A    between atoms: _499  and  _502
REMARK  213  A    between atoms: _502  and  _503
REMARK  214  A    between atoms: _503  and  _504
REMARK  215  A    between atoms: _509  and  _511
REMARK  216  A    between atoms: _511  and  _512
REMARK  217  A    between atoms: _511  and  _514
REMARK  218  A    between atoms: _514  and  _515
REMARK  219  A    between atoms: _515  and  _516
REMARK  220  A    between atoms: _516  and  _517
REMARK  221  A    between atoms: _527  and  _528
REMARK  222  A    between atoms: _533  and  _535
REMARK  223  A    between atoms: _535  and  _536
REMARK  224  A    between atoms: _538  and  _540
REMARK  225  A    between atoms: _540  and  _541
REMARK  226  A    between atoms: _540  and  _543
REMARK  227  A    between atoms: _546  and  _548
REMARK  228  A    between atoms: _548  and  _549
REMARK  229  A    between atoms: _548  and  _551
REMARK  230  A    between atoms: _551  and  _552
REMARK  231  A    between atoms: _557  and  _558
REMARK  232  A    between atoms: _560  and  _562
REMARK  233  A    between atoms: _562  and  _563
REMARK  234  A    between atoms: _562  and  _565
REMARK  235  A    between atoms: _565  and  _566
REMARK                            x       y       z     vdW  Elec       q    Type
REMARK                         _______ _______ _______ _____ _____    ______ ____
ROOT
ATOM      1  O   HOH     1      51.473 -18.358  38.911  0.00  0.00    +0.000 OA
ENDROOT
TORSDOF 0
