REMARK  Name = ../refined-set-2016/1bwb/1bwb_pocket.pdb
REMARK  249 active torsions:
REMARK  status: ('A' for Active; 'I' for Inactive)
REMARK    1  A    between atoms: _1  and  _3
REMARK    2  A    between atoms: _3  and  _4
REMARK    3  A    between atoms: _3  and  _6
REMARK    4  A    between atoms: _6  and  _7
REMARK    5  A    between atoms: _7  and  _8
REMARK    6  A    between atoms: _8  and  _9
REMARK    7  A    between atoms: _18  and  _20
REMARK    8  A    between atoms: _20  and  _21
REMARK    9  A    between atoms: _20  and  _23
REMARK   10  A    between atoms: _23  and  _24
REMARK   11  A    between atoms: _27  and  _29
REMARK   12  A    between atoms: _29  and  _30
REMARK   13  A    between atoms: _29  and  _32
REMARK   14  A    between atoms: _32  and  _33
REMARK   15  A    between atoms: _36  and  _38
REMARK   16  A    between atoms: _38  and  _39
REMARK   17  A    between atoms: _38  and  _41
REMARK   18  A    between atoms: _41  and  _42
REMARK   19  A    between atoms: _45  and  _47
REMARK   20  A    between atoms: _47  and  _48
REMARK   21  A    between atoms: _47  and  _50
REMARK   22  A    between atoms: _50  and  _51
REMARK   23  A    between atoms: _54  and  _56
REMARK   24  A    between atoms: _56  and  _57
REMARK   25  A    between atoms: _59  and  _61
REMARK   26  A    between atoms: _61  and  _62
REMARK   27  A    between atoms: _65  and  _67
REMARK   28  A    between atoms: _67  and  _68
REMARK   29  A    between atoms: _67  and  _70
REMARK   30  A    between atoms: _70  and  _71
REMARK   31  A    between atoms: _74  and  _76
REMARK   32  A    between atoms: _76  and  _77
REMARK   33  A    between atoms: _76  and  _79
REMARK   34  A    between atoms: _79  and  _80
REMARK   35  A    between atoms: _83  and  _85
REMARK   36  A    between atoms: _85  and  _86
REMARK   37  A    between atoms: _85  and  _88
REMARK   38  A    between atoms: _88  and  _89
REMARK   39  A    between atoms: _92  and  _94
REMARK   40  A    between atoms: _94  and  _95
REMARK   41  A    between atoms: _94  and  _97
REMARK   42  A    between atoms: _100  and  _102
REMARK   43  A    between atoms: _102  and  _103
REMARK   44  A    between atoms: _102  and  _105
REMARK   45  A    between atoms: _105  and  _106
REMARK   46  A    between atoms: _109  and  _111
REMARK   47  A    between atoms: _111  and  _112
REMARK   48  A    between atoms: _111  and  _114
REMARK   49  A    between atoms: _114  and  _115
REMARK   50  A    between atoms: _115  and  _116
REMARK   51  A    between atoms: _116  and  _117
REMARK   52  A    between atoms: _117  and  _118
REMARK   53  A    between atoms: _122  and  _124
REMARK   54  A    between atoms: _124  and  _125
REMARK   55  A    between atoms: _124  and  _127
REMARK   56  A    between atoms: _127  and  _128
REMARK   57  A    between atoms: _128  and  _129
REMARK   58  A    between atoms: _131  and  _133
REMARK   59  A    between atoms: _133  and  _134
REMARK   60  A    between atoms: _133  and  _136
REMARK   61  A    between atoms: _136  and  _137
REMARK   62  A    between atoms: _140  and  _142
REMARK   63  A    between atoms: _142  and  _143
REMARK   64  A    between atoms: _145  and  _147
REMARK   65  A    between atoms: _147  and  _148
REMARK   66  A    between atoms: _150  and  _152
REMARK   67  A    between atoms: _152  and  _153
REMARK   68  A    between atoms: _152  and  _155
REMARK   69  A    between atoms: _155  and  _156
REMARK   70  A    between atoms: _159  and  _161
REMARK   71  A    between atoms: _161  and  _162
REMARK   72  A    between atoms: _164  and  _166
REMARK   73  A    between atoms: _166  and  _167
REMARK   74  A    between atoms: _169  and  _171
REMARK   75  A    between atoms: _171  and  _172
REMARK   76  A    between atoms: _171  and  _174
REMARK   77  A    between atoms: _174  and  _175
REMARK   78  A    between atoms: _181  and  _183
REMARK   79  A    between atoms: _183  and  _184
REMARK   80  A    between atoms: _183  and  _186
REMARK   81  A    between atoms: _186  and  _187
REMARK   82  A    between atoms: _190  and  _192
REMARK   83  A    between atoms: _192  and  _193
REMARK   84  A    between atoms: _192  and  _195
REMARK   85  A    between atoms: _198  and  _200
REMARK   86  A    between atoms: _200  and  _201
REMARK   87  A    between atoms: _200  and  _203
REMARK   88  A    between atoms: _203  and  _204
REMARK   89  A    between atoms: _204  and  _205
REMARK   90  A    between atoms: _210  and  _212
REMARK   91  A    between atoms: _212  and  _213
REMARK   92  A    between atoms: _212  and  _215
REMARK   93  A    between atoms: _215  and  _216
REMARK   94  A    between atoms: _220  and  _221
REMARK   95  A    between atoms: _226  and  _228
REMARK   96  A    between atoms: _228  and  _229
REMARK   97  A    between atoms: _228  and  _231
REMARK   98  A    between atoms: _231  and  _232
REMARK   99  A    between atoms: _236  and  _237
REMARK  100  A    between atoms: _242  and  _244
REMARK  101  A    between atoms: _244  and  _245
REMARK  102  A    between atoms: _244  and  _247
REMARK  103  A    between atoms: _247  and  _248
REMARK  104  A    between atoms: _254  and  _256
REMARK  105  A    between atoms: _256  and  _257
REMARK  106  A    between atoms: _256  and  _259
REMARK  107  A    between atoms: _259  and  _260
REMARK  108  A    between atoms: _265  and  _267
REMARK  109  A    between atoms: _267  and  _268
REMARK  110  A    between atoms: _267  and  _270
REMARK  111  A    between atoms: _273  and  _275
REMARK  112  A    between atoms: _275  and  _276
REMARK  113  A    between atoms: _275  and  _278
REMARK  114  A    between atoms: _278  and  _279
REMARK  115  A    between atoms: _282  and  _284
REMARK  116  A    between atoms: _284  and  _285
REMARK  117  A    between atoms: _287  and  _289
REMARK  118  A    between atoms: _289  and  _290
REMARK  119  A    between atoms: _289  and  _292
REMARK  120  A    between atoms: _292  and  _293
REMARK  121  A    between atoms: _293  and  _294
REMARK  122  A    between atoms: _294  and  _295
REMARK  123  A    between atoms: _304  and  _306
REMARK  124  A    between atoms: _306  and  _307
REMARK  125  A    between atoms: _306  and  _309
REMARK  126  A    between atoms: _309  and  _310
REMARK  127  A    between atoms: _315  and  _317
REMARK  128  A    between atoms: _317  and  _318
REMARK  129  A    between atoms: _317  and  _320
REMARK  130  A    between atoms: _320  and  _321
REMARK  131  A    between atoms: _321  and  _322
REMARK  132  A    between atoms: _322  and  _323
REMARK  133  A    between atoms: _332  and  _334
REMARK  134  A    between atoms: _334  and  _335
REMARK  135  A    between atoms: _334  and  _337
REMARK  136  A    between atoms: _337  and  _338
REMARK  137  A    between atoms: _341  and  _343
REMARK  138  A    between atoms: _343  and  _344
REMARK  139  A    between atoms: _343  and  _346
REMARK  140  A    between atoms: _346  and  _347
REMARK  141  A    between atoms: _350  and  _352
REMARK  142  A    between atoms: _352  and  _353
REMARK  143  A    between atoms: _352  and  _355
REMARK  144  A    between atoms: _355  and  _356
REMARK  145  A    between atoms: _359  and  _361
REMARK  146  A    between atoms: _361  and  _362
REMARK  147  A    between atoms: _361  and  _364
REMARK  148  A    between atoms: _364  and  _365
REMARK  149  A    between atoms: _368  and  _370
REMARK  150  A    between atoms: _370  and  _371
REMARK  151  A    between atoms: _373  and  _375
REMARK  152  A    between atoms: _375  and  _376
REMARK  153  A    between atoms: _379  and  _381
REMARK  154  A    between atoms: _381  and  _382
REMARK  155  A    between atoms: _381  and  _384
REMARK  156  A    between atoms: _384  and  _385
REMARK  157  A    between atoms: _388  and  _390
REMARK  158  A    between atoms: _390  and  _391
REMARK  159  A    between atoms: _390  and  _393
REMARK  160  A    between atoms: _393  and  _394
REMARK  161  A    between atoms: _397  and  _399
REMARK  162  A    between atoms: _399  and  _400
REMARK  163  A    between atoms: _399  and  _402
REMARK  164  A    between atoms: _402  and  _403
REMARK  165  A    between atoms: _406  and  _408
REMARK  166  A    between atoms: _408  and  _409
REMARK  167  A    between atoms: _408  and  _411
REMARK  168  A    between atoms: _414  and  _416
REMARK  169  A    between atoms: _416  and  _417
REMARK  170  A    between atoms: _416  and  _419
REMARK  171  A    between atoms: _419  and  _420
REMARK  172  A    between atoms: _423  and  _425
REMARK  173  A    between atoms: _425  and  _426
REMARK  174  A    between atoms: _425  and  _428
REMARK  175  A    between atoms: _428  and  _429
REMARK  176  A    between atoms: _429  and  _430
REMARK  177  A    between atoms: _430  and  _431
REMARK  178  A    between atoms: _431  and  _432
REMARK  179  A    between atoms: _436  and  _438
REMARK  180  A    between atoms: _438  and  _439
REMARK  181  A    between atoms: _438  and  _441
REMARK  182  A    between atoms: _441  and  _442
REMARK  183  A    between atoms: _442  and  _443
REMARK  184  A    between atoms: _445  and  _447
REMARK  185  A    between atoms: _447  and  _448
REMARK  186  A    between atoms: _447  and  _450
REMARK  187  A    between atoms: _450  and  _451
REMARK  188  A    between atoms: _454  and  _456
REMARK  189  A    between atoms: _456  and  _457
REMARK  190  A    between atoms: _459  and  _461
REMARK  191  A    between atoms: _461  and  _462
REMARK  192  A    between atoms: _464  and  _466
REMARK  193  A    between atoms: _466  and  _467
REMARK  194  A    between atoms: _466  and  _469
REMARK  195  A    between atoms: _469  and  _470
REMARK  196  A    between atoms: _473  and  _475
REMARK  197  A    between atoms: _475  and  _476
REMARK  198  A    between atoms: _478  and  _480
REMARK  199  A    between atoms: _480  and  _481
REMARK  200  A    between atoms: _483  and  _485
REMARK  201  A    between atoms: _485  and  _486
REMARK  202  A    between atoms: _485  and  _488
REMARK  203  A    between atoms: _488  and  _489
REMARK  204  A    between atoms: _495  and  _497
REMARK  205  A    between atoms: _497  and  _498
REMARK  206  A    between atoms: _497  and  _500
REMARK  207  A    between atoms: _500  and  _501
REMARK  208  A    between atoms: _504  and  _506
REMARK  209  A    between atoms: _506  and  _507
REMARK  210  A    between atoms: _506  and  _509
REMARK  211  A    between atoms: _509  and  _510
REMARK  212  A    between atoms: _510  and  _511
REMARK  213  A    between atoms: _516  and  _518
REMARK  214  A    between atoms: _518  and  _519
REMARK  215  A    between atoms: _518  and  _521
REMARK  216  A    between atoms: _521  and  _522
REMARK  217  A    between atoms: _526  and  _527
REMARK  218  A    between atoms: _532  and  _534
REMARK  219  A    between atoms: _534  and  _535
REMARK  220  A    between atoms: _534  and  _537
REMARK  221  A    between atoms: _537  and  _538
REMARK  222  A    between atoms: _542  and  _543
REMARK  223  A    between atoms: _548  and  _550
REMARK  224  A    between atoms: _550  and  _551
REMARK  225  A    between atoms: _550  and  _553
REMARK  226  A    between atoms: _553  and  _554
REMARK  227  A    between atoms: _560  and  _562
REMARK  228  A    between atoms: _562  and  _563
REMARK  229  A    between atoms: _562  and  _565
REMARK  230  A    between atoms: _565  and  _566
REMARK  231  A    between atoms: _571  and  _573
REMARK  232  A    between atoms: _573  and  _574
REMARK  233  A    between atoms: _573  and  _576
REMARK  234  A    between atoms: _579  and  _581
REMARK  235  A    between atoms: _581  and  _582
REMARK  236  A    between atoms: _581  and  _584
REMARK  237  A    between atoms: _584  and  _585
REMARK  238  A    between atoms: _588  and  _590
REMARK  239  A    between atoms: _590  and  _591
REMARK  240  A    between atoms: _593  and  _595
REMARK  241  A    between atoms: _595  and  _596
REMARK  242  A    between atoms: _595  and  _598
REMARK  243  A    between atoms: _598  and  _599
REMARK  244  A    between atoms: _599  and  _600
REMARK  245  A    between atoms: _600  and  _601
REMARK  246  A    between atoms: _610  and  _612
REMARK  247  A    between atoms: _612  and  _613
REMARK  248  A    between atoms: _612  and  _615
REMARK  249  A    between atoms: _615  and  _616
REMARK                            x       y       z     vdW  Elec       q    Type
REMARK                         _______ _______ _______ _____ _____    ______ ____
ROOT
ATOM      1  NE  ARG A   1      -4.448  24.309  23.323  0.00  0.00    -0.265 N 
ATOM      2  HE  ARG A   1      -5.267  24.213  23.957  0.00  0.00    +0.259 HD
ATOM      3  CZ  ARG A   1      -3.788  23.219  22.914  0.00  0.00    +0.342 C 
ATOM      4  NH2 ARG A   1      -4.233  22.019  23.295  0.00  0.00    -0.292 N 
ATOM      5 HH21 ARG A   1      -5.077  21.945  23.898  0.00  0.00    +0.255 HD
ATOM      6 HH22 ARG A   1      -3.735  21.159  22.989  0.00  0.00    +0.255 HD
ATOM      7  NH1 ARG A   1      -2.708  23.326  22.119  0.00  0.00    -0.292 N 
ATOM      8 HH11 ARG A   1      -2.377  24.264  21.815  0.00  0.00    +0.255 HD
ATOM      9 HH12 ARG A   1      -2.204  22.471  21.808  0.00  0.00    +0.255 HD
ENDROOT
BRANCH   1  10
ATOM     10  CD  ARG A   1      -4.019  25.636  22.880  0.00  0.00    +0.174 C 
BRANCH  10  11
ATOM     11  CG  ARG A   1      -5.205  26.427  22.346  0.00  0.00    +0.045 C 
BRANCH  11  12
ATOM     12  CB  ARG A   1      -5.502  27.596  23.262  0.00  0.00    +0.029 C 
BRANCH  12  13
ATOM     13  CA  ARG A   1      -6.708  28.432  22.834  0.00  0.00    +0.133 C 
BRANCH  13  14
ATOM     14  N   ARG A   1      -6.503  29.071  21.518  0.00  0.00    -0.239 NA
ATOM     15  H   ARG A   1      -5.637  28.896  20.969  0.00  0.00    +0.142 HD
ENDBRANCH  13  14
BRANCH  13  16
ATOM     16  C   ARG A   1      -6.876  29.474  23.919  0.00  0.00    +0.224 C 
ATOM     17  O   ARG A   1      -6.138  30.451  23.930  0.00  0.00    -0.287 OA
ENDBRANCH  13  16
ENDBRANCH  12  13
ENDBRANCH  11  12
ENDBRANCH  10  11
ENDBRANCH   1  10
TORSDOF 6
REMARK  Name = ../refined-set-2016/1bwb/1bwb_pocket.pdb
REMARK  249 active torsions:
REMARK  status: ('A' for Active; 'I' for Inactive)
REMARK    1  A    between atoms: _1  and  _3
REMARK    2  A    between atoms: _3  and  _4
REMARK    3  A    between atoms: _3  and  _6
REMARK    4  A    between atoms: _6  and  _7
REMARK    5  A    between atoms: _7  and  _8
REMARK    6  A    between atoms: _8  and  _9
REMARK    7  A    between atoms: _18  and  _20
REMARK    8  A    between atoms: _20  and  _21
REMARK    9  A    between atoms: _20  and  _23
REMARK   10  A    between atoms: _23  and  _24
REMARK   11  A    between atoms: _27  and  _29
REMARK   12  A    between atoms: _29  and  _30
REMARK   13  A    between atoms: _29  and  _32
REMARK   14  A    between atoms: _32  and  _33
REMARK   15  A    between atoms: _36  and  _38
REMARK   16  A    between atoms: _38  and  _39
REMARK   17  A    between atoms: _38  and  _41
REMARK   18  A    between atoms: _41  and  _42
REMARK   19  A    between atoms: _45  and  _47
REMARK   20  A    between atoms: _47  and  _48
REMARK   21  A    between atoms: _47  and  _50
REMARK   22  A    between atoms: _50  and  _51
REMARK   23  A    between atoms: _54  and  _56
REMARK   24  A    between atoms: _56  and  _57
REMARK   25  A    between atoms: _59  and  _61
REMARK   26  A    between atoms: _61  and  _62
REMARK   27  A    between atoms: _65  and  _67
REMARK   28  A    between atoms: _67  and  _68
REMARK   29  A    between atoms: _67  and  _70
REMARK   30  A    between atoms: _70  and  _71
REMARK   31  A    between atoms: _74  and  _76
REMARK   32  A    between atoms: _76  and  _77
REMARK   33  A    between atoms: _76  and  _79
REMARK   34  A    between atoms: _79  and  _80
REMARK   35  A    between atoms: _83  and  _85
REMARK   36  A    between atoms: _85  and  _86
REMARK   37  A    between atoms: _85  and  _88
REMARK   38  A    between atoms: _88  and  _89
REMARK   39  A    between atoms: _92  and  _94
REMARK   40  A    between atoms: _94  and  _95
REMARK   41  A    between atoms: _94  and  _97
REMARK   42  A    between atoms: _100  and  _102
REMARK   43  A    between atoms: _102  and  _103
REMARK   44  A    between atoms: _102  and  _105
REMARK   45  A    between atoms: _105  and  _106
REMARK   46  A    between atoms: _109  and  _111
REMARK   47  A    between atoms: _111  and  _112
REMARK   48  A    between atoms: _111  and  _114
REMARK   49  A    between atoms: _114  and  _115
REMARK   50  A    between atoms: _115  and  _116
REMARK   51  A    between atoms: _116  and  _117
REMARK   52  A    between atoms: _117  and  _118
REMARK   53  A    between atoms: _122  and  _124
REMARK   54  A    between atoms: _124  and  _125
REMARK   55  A    between atoms: _124  and  _127
REMARK   56  A    between atoms: _127  and  _128
REMARK   57  A    between atoms: _128  and  _129
REMARK   58  A    between atoms: _131  and  _133
REMARK   59  A    between atoms: _133  and  _134
REMARK   60  A    between atoms: _133  and  _136
REMARK   61  A    between atoms: _136  and  _137
REMARK   62  A    between atoms: _140  and  _142
REMARK   63  A    between atoms: _142  and  _143
REMARK   64  A    between atoms: _145  and  _147
REMARK   65  A    between atoms: _147  and  _148
REMARK   66  A    between atoms: _150  and  _152
REMARK   67  A    between atoms: _152  and  _153
REMARK   68  A    between atoms: _152  and  _155
REMARK   69  A    between atoms: _155  and  _156
REMARK   70  A    between atoms: _159  and  _161
REMARK   71  A    between atoms: _161  and  _162
REMARK   72  A    between atoms: _164  and  _166
REMARK   73  A    between atoms: _166  and  _167
REMARK   74  A    between atoms: _169  and  _171
REMARK   75  A    between atoms: _171  and  _172
REMARK   76  A    between atoms: _171  and  _174
REMARK   77  A    between atoms: _174  and  _175
REMARK   78  A    between atoms: _181  and  _183
REMARK   79  A    between atoms: _183  and  _184
REMARK   80  A    between atoms: _183  and  _186
REMARK   81  A    between atoms: _186  and  _187
REMARK   82  A    between atoms: _190  and  _192
REMARK   83  A    between atoms: _192  and  _193
REMARK   84  A    between atoms: _192  and  _195
REMARK   85  A    between atoms: _198  and  _200
REMARK   86  A    between atoms: _200  and  _201
REMARK   87  A    between atoms: _200  and  _203
REMARK   88  A    between atoms: _203  and  _204
REMARK   89  A    between atoms: _204  and  _205
REMARK   90  A    between atoms: _210  and  _212
REMARK   91  A    between atoms: _212  and  _213
REMARK   92  A    between atoms: _212  and  _215
REMARK   93  A    between atoms: _215  and  _216
REMARK   94  A    between atoms: _220  and  _221
REMARK   95  A    between atoms: _226  and  _228
REMARK   96  A    between atoms: _228  and  _229
REMARK   97  A    between atoms: _228  and  _231
REMARK   98  A    between atoms: _231  and  _232
REMARK   99  A    between atoms: _236  and  _237
REMARK  100  A    between atoms: _242  and  _244
REMARK  101  A    between atoms: _244  and  _245
REMARK  102  A    between atoms: _244  and  _247
REMARK  103  A    between atoms: _247  and  _248
REMARK  104  A    between atoms: _254  and  _256
REMARK  105  A    between atoms: _256  and  _257
REMARK  106  A    between atoms: _256  and  _259
REMARK  107  A    between atoms: _259  and  _260
REMARK  108  A    between atoms: _265  and  _267
REMARK  109  A    between atoms: _267  and  _268
REMARK  110  A    between atoms: _267  and  _270
REMARK  111  A    between atoms: _273  and  _275
REMARK  112  A    between atoms: _275  and  _276
REMARK  113  A    between atoms: _275  and  _278
REMARK  114  A    between atoms: _278  and  _279
REMARK  115  A    between atoms: _282  and  _284
REMARK  116  A    between atoms: _284  and  _285
REMARK  117  A    between atoms: _287  and  _289
REMARK  118  A    between atoms: _289  and  _290
REMARK  119  A    between atoms: _289  and  _292
REMARK  120  A    between atoms: _292  and  _293
REMARK  121  A    between atoms: _293  and  _294
REMARK  122  A    between atoms: _294  and  _295
REMARK  123  A    between atoms: _304  and  _306
REMARK  124  A    between atoms: _306  and  _307
REMARK  125  A    between atoms: _306  and  _309
REMARK  126  A    between atoms: _309  and  _310
REMARK  127  A    between atoms: _315  and  _317
REMARK  128  A    between atoms: _317  and  _318
REMARK  129  A    between atoms: _317  and  _320
REMARK  130  A    between atoms: _320  and  _321
REMARK  131  A    between atoms: _321  and  _322
REMARK  132  A    between atoms: _322  and  _323
REMARK  133  A    between atoms: _332  and  _334
REMARK  134  A    between atoms: _334  and  _335
REMARK  135  A    between atoms: _334  and  _337
REMARK  136  A    between atoms: _337  and  _338
REMARK  137  A    between atoms: _341  and  _343
REMARK  138  A    between atoms: _343  and  _344
REMARK  139  A    between atoms: _343  and  _346
REMARK  140  A    between atoms: _346  and  _347
REMARK  141  A    between atoms: _350  and  _352
REMARK  142  A    between atoms: _352  and  _353
REMARK  143  A    between atoms: _352  and  _355
REMARK  144  A    between atoms: _355  and  _356
REMARK  145  A    between atoms: _359  and  _361
REMARK  146  A    between atoms: _361  and  _362
REMARK  147  A    between atoms: _361  and  _364
REMARK  148  A    between atoms: _364  and  _365
REMARK  149  A    between atoms: _368  and  _370
REMARK  150  A    between atoms: _370  and  _371
REMARK  151  A    between atoms: _373  and  _375
REMARK  152  A    between atoms: _375  and  _376
REMARK  153  A    between atoms: _379  and  _381
REMARK  154  A    between atoms: _381  and  _382
REMARK  155  A    between atoms: _381  and  _384
REMARK  156  A    between atoms: _384  and  _385
REMARK  157  A    between atoms: _388  and  _390
REMARK  158  A    between atoms: _390  and  _391
REMARK  159  A    between atoms: _390  and  _393
REMARK  160  A    between atoms: _393  and  _394
REMARK  161  A    between atoms: _397  and  _399
REMARK  162  A    between atoms: _399  and  _400
REMARK  163  A    between atoms: _399  and  _402
REMARK  164  A    between atoms: _402  and  _403
REMARK  165  A    between atoms: _406  and  _408
REMARK  166  A    between atoms: _408  and  _409
REMARK  167  A    between atoms: _408  and  _411
REMARK  168  A    between atoms: _414  and  _416
REMARK  169  A    between atoms: _416  and  _417
REMARK  170  A    between atoms: _416  and  _419
REMARK  171  A    between atoms: _419  and  _420
REMARK  172  A    between atoms: _423  and  _425
REMARK  173  A    between atoms: _425  and  _426
REMARK  174  A    between atoms: _425  and  _428
REMARK  175  A    between atoms: _428  and  _429
REMARK  176  A    between atoms: _429  and  _430
REMARK  177  A    between atoms: _430  and  _431
REMARK  178  A    between atoms: _431  and  _432
REMARK  179  A    between atoms: _436  and  _438
REMARK  180  A    between atoms: _438  and  _439
REMARK  181  A    between atoms: _438  and  _441
REMARK  182  A    between atoms: _441  and  _442
REMARK  183  A    between atoms: _442  and  _443
REMARK  184  A    between atoms: _445  and  _447
REMARK  185  A    between atoms: _447  and  _448
REMARK  186  A    between atoms: _447  and  _450
REMARK  187  A    between atoms: _450  and  _451
REMARK  188  A    between atoms: _454  and  _456
REMARK  189  A    between atoms: _456  and  _457
REMARK  190  A    between atoms: _459  and  _461
REMARK  191  A    between atoms: _461  and  _462
REMARK  192  A    between atoms: _464  and  _466
REMARK  193  A    between atoms: _466  and  _467
REMARK  194  A    between atoms: _466  and  _469
REMARK  195  A    between atoms: _469  and  _470
REMARK  196  A    between atoms: _473  and  _475
REMARK  197  A    between atoms: _475  and  _476
REMARK  198  A    between atoms: _478  and  _480
REMARK  199  A    between atoms: _480  and  _481
REMARK  200  A    between atoms: _483  and  _485
REMARK  201  A    between atoms: _485  and  _486
REMARK  202  A    between atoms: _485  and  _488
REMARK  203  A    between atoms: _488  and  _489
REMARK  204  A    between atoms: _495  and  _497
REMARK  205  A    between atoms: _497  and  _498
REMARK  206  A    between atoms: _497  and  _500
REMARK  207  A    between atoms: _500  and  _501
REMARK  208  A    between atoms: _504  and  _506
REMARK  209  A    between atoms: _506  and  _507
REMARK  210  A    between atoms: _506  and  _509
REMARK  211  A    between atoms: _509  and  _510
REMARK  212  A    between atoms: _510  and  _511
REMARK  213  A    between atoms: _516  and  _518
REMARK  214  A    between atoms: _518  and  _519
REMARK  215  A    between atoms: _518  and  _521
REMARK  216  A    between atoms: _521  and  _522
REMARK  217  A    between atoms: _526  and  _527
REMARK  218  A    between atoms: _532  and  _534
REMARK  219  A    between atoms: _534  and  _535
REMARK  220  A    between atoms: _534  and  _537
REMARK  221  A    between atoms: _537  and  _538
REMARK  222  A    between atoms: _542  and  _543
REMARK  223  A    between atoms: _548  and  _550
REMARK  224  A    between atoms: _550  and  _551
REMARK  225  A    between atoms: _550  and  _553
REMARK  226  A    between atoms: _553  and  _554
REMARK  227  A    between atoms: _560  and  _562
REMARK  228  A    between atoms: _562  and  _563
REMARK  229  A    between atoms: _562  and  _565
REMARK  230  A    between atoms: _565  and  _566
REMARK  231  A    between atoms: _571  and  _573
REMARK  232  A    between atoms: _573  and  _574
REMARK  233  A    between atoms: _573  and  _576
REMARK  234  A    between atoms: _579  and  _581
REMARK  235  A    between atoms: _581  and  _582
REMARK  236  A    between atoms: _581  and  _584
REMARK  237  A    between atoms: _584  and  _585
REMARK  238  A    between atoms: _588  and  _590
REMARK  239  A    between atoms: _590  and  _591
REMARK  240  A    between atoms: _593  and  _595
REMARK  241  A    between atoms: _595  and  _596
REMARK  242  A    between atoms: _595  and  _598
REMARK  243  A    between atoms: _598  and  _599
REMARK  244  A    between atoms: _599  and  _600
REMARK  245  A    between atoms: _600  and  _601
REMARK  246  A    between atoms: _610  and  _612
REMARK  247  A    between atoms: _612  and  _613
REMARK  248  A    between atoms: _612  and  _615
REMARK  249  A    between atoms: _615  and  _616
REMARK                            x       y       z     vdW  Elec       q    Type
REMARK                         _______ _______ _______ _____ _____    ______ ____
ROOT
ATOM      1  C   ALA A   6     -13.480  19.523  33.998  0.00  0.00    +0.241 C 
ATOM      2  N   ASP A   7     -13.734  18.450  34.719  0.00  0.00    -0.297 N 
ATOM      3  H   ASP A   7     -13.499  17.489  34.397  0.00  0.00    +0.150 HD
ATOM      4  O   ALA A   6     -13.788  20.639  34.380  0.00  0.00    -0.273 OA
ENDROOT
BRANCH   1   5
ATOM      5  CA  ALA A   6     -12.766  19.295  32.699  0.00  0.00    +0.149 C 
ATOM      6  CB  ALA A   6     -11.380  19.927  32.857  0.00  0.00    +0.031 C 
BRANCH   5   8
ATOM      7  C   GLY A   5     -14.375  19.363  30.873  0.00  0.00    +0.243 C 
ATOM      8  N   ALA A   6     -13.523  20.002  31.687  0.00  0.00    -0.297 N 
ATOM      9  H   ALA A   6     -13.403  21.030  31.589  0.00  0.00    +0.150 HD
ATOM     10  O   GLY A   5     -14.623  18.175  31.012  0.00  0.00    -0.273 OA
BRANCH   7  11
ATOM     11  CA  GLY A   5     -14.968  20.195  29.713  0.00  0.00    +0.176 C 
BRANCH  11  14
ATOM     12  C   THR A   4     -15.411  22.479  30.410  0.00  0.00    +0.243 C 
ATOM     13  O   THR A   4     -16.404  22.125  31.021  0.00  0.00    -0.273 OA
ATOM     14  N   GLY A   5     -14.638  21.635  29.715  0.00  0.00    -0.295 N 
ATOM     15  H   GLY A   5     -13.817  21.988  29.184  0.00  0.00    +0.150 HD
BRANCH  12  16
ATOM     16  CA  THR A   4     -15.028  23.949  30.388  0.00  0.00    +0.176 C 
BRANCH  16  19
ATOM     17  C   ASP A   3     -12.644  23.867  30.661  0.00  0.00    +0.241 C 
ATOM     18  O   ASP A   3     -12.775  23.189  31.665  0.00  0.00    -0.273 OA
ATOM     19  N   THR A   4     -13.684  24.252  29.924  0.00  0.00    -0.295 N 
ATOM     20  H   THR A   4     -13.537  24.762  29.030  0.00  0.00    +0.150 HD
BRANCH  17  21
ATOM     21  CA  ASP A   3     -11.264  24.231  30.131  0.00  0.00    +0.160 C 
BRANCH  21  23
ATOM     22  C   LEU A   2     -10.375  26.480  29.973  0.00  0.00    +0.241 C 
ATOM     23  N   ASP A   3     -10.715  25.442  30.736  0.00  0.00    -0.297 N 
ATOM     24  H   ASP A   3     -10.589  25.494  31.767  0.00  0.00    +0.150 HD
ATOM     25  O   LEU A   2     -10.686  26.590  28.795  0.00  0.00    -0.273 OA
BRANCH  22  26
ATOM     26  CA  LEU A   2      -9.525  27.539  30.630  0.00  0.00    +0.149 C 
BRANCH  26  29
ATOM     27  C   LEU A   1      -7.316  26.637  30.382  0.00  0.00    +0.238 C 
ATOM     28  O   LEU A   1      -7.529  25.836  31.288  0.00  0.00    -0.274 OA
ATOM     29  N   LEU A   2      -8.197  27.554  30.019  0.00  0.00    -0.297 N 
ATOM     30  H   LEU A   2      -7.949  28.274  29.311  0.00  0.00    +0.150 HD
BRANCH  27  31
ATOM     31  CA  LEU A   1      -6.015  26.617  29.592  0.00  0.00    +0.145 C 
BRANCH  31  32
ATOM     32  N   LEU A   1      -4.902  26.526  30.516  0.00  0.00    -0.238 NA
ATOM     33  H   LEU A   1      -4.617  25.603  30.901  0.00  0.00    +0.142 HD
ENDBRANCH  31  32
BRANCH  31  34
ATOM     34  CB  LEU A   1      -5.838  25.323  28.783  0.00  0.00    +0.026 C 
BRANCH  34  35
ATOM     35  CG  LEU A   1      -6.728  24.950  27.611  0.00  0.00    +0.002 C 
ATOM     36  CD2 LEU A   1      -6.499  23.476  27.273  0.00  0.00    +0.000 C 
ATOM     37  CD1 LEU A   1      -6.441  25.812  26.399  0.00  0.00    +0.000 C 
ENDBRANCH  34  35
ENDBRANCH  31  34
ENDBRANCH  27  31
ENDBRANCH  26  29
BRANCH  26  38
ATOM     38  CB  LEU A   2     -10.240  28.866  30.402  0.00  0.00    +0.029 C 
BRANCH  38  39
ATOM     39  CG  LEU A   2      -9.558  30.113  30.970  0.00  0.00    +0.002 C 
ATOM     40  CD2 LEU A   2      -9.418  30.008  32.499  0.00  0.00    +0.000 C 
ATOM     41  CD1 LEU A   2     -10.321  31.359  30.538  0.00  0.00    +0.000 C 
ENDBRANCH  38  39
ENDBRANCH  26  38
ENDBRANCH  22  26
ENDBRANCH  21  23
BRANCH  21  42
ATOM     42  CB  ASP A   3     -10.257  23.109  30.417  0.00  0.00    +0.143 C 
BRANCH  42  43
ATOM     43  CG  ASP A   3     -10.519  21.817  29.685  0.00  0.00    +0.367 C 
ATOM     44  OD2 ASP A   3      -9.636  20.994  29.665  0.00  0.00    -0.246 OA
ATOM     45  OD1 ASP A   3     -11.584  21.604  29.135  0.00  0.00    -0.246 OA
ENDBRANCH  42  43
ENDBRANCH  21  42
ENDBRANCH  17  21
ENDBRANCH  16  19
BRANCH  16  46
ATOM     46  CB  THR A   4     -16.052  24.719  29.554  0.00  0.00    +0.137 C 
ATOM     47  CG2 THR A   4     -15.791  26.217  29.602  0.00  0.00    +0.034 C 
BRANCH  46  48
ATOM     48  OG1 THR A   4     -15.999  24.297  28.186  0.00  0.00    -0.382 OA
ATOM     49  HG1 THR A   4     -16.200  23.329  28.132  0.00  0.00    +0.210 HD
ENDBRANCH  46  48
ENDBRANCH  16  46
ENDBRANCH  12  16
ENDBRANCH  11  14
ENDBRANCH   7  11
ENDBRANCH   5   8
ENDBRANCH   1   5
BRANCH   2  50
ATOM     50  CA  ASP A   7     -14.374  18.716  36.011  0.00  0.00    +0.160 C 
BRANCH  50  51
ATOM     51  C   ASP A   7     -13.419  19.319  37.027  0.00  0.00    +0.241 C 
ATOM     52  O   ASP A   7     -13.802  20.164  37.820  0.00  0.00    -0.273 OA
ATOM     53  N   ASP A   8     -12.168  18.852  36.956  0.00  0.00    -0.297 N 
ATOM     54  H   ASP A   8     -11.908  18.246  36.152  0.00  0.00    +0.150 HD
BRANCH  53  55
ATOM     55  CA  ASP A   8     -11.153  19.156  37.958  0.00  0.00    +0.160 C 
BRANCH  55  56
ATOM     56  C   ASP A   8     -10.050  19.910  37.315  0.00  0.00    +0.241 C 
ATOM     57  N   THR A   9      -9.251  20.575  38.124  0.00  0.00    -0.295 N 
ATOM     58  H   THR A   9      -9.479  20.604  39.138  0.00  0.00    +0.150 HD
ATOM     59  O   ASP A   8      -9.923  19.856  36.108  0.00  0.00    -0.273 OA
BRANCH  57  60
ATOM     60  CA  THR A   9      -8.053  21.276  37.651  0.00  0.00    +0.176 C 
BRANCH  60  61
ATOM     61  C   THR A   9      -6.834  20.382  37.761  0.00  0.00    +0.243 C 
ATOM     62  O   THR A   9      -6.660  19.739  38.779  0.00  0.00    -0.273 OA
ATOM     63  N   VAL A  10      -6.013  20.340  36.716  0.00  0.00    -0.297 N 
ATOM     64  H   VAL A  10      -6.184  20.995  35.926  0.00  0.00    +0.150 HD
BRANCH  63  65
ATOM     65  CA  VAL A  10      -4.876  19.415  36.621  0.00  0.00    +0.149 C 
BRANCH  65  66
ATOM     66  C   VAL A  10      -3.684  20.171  36.071  0.00  0.00    +0.241 C 
ATOM     67  N   LEU A  11      -2.618  20.174  36.856  0.00  0.00    -0.298 N 
ATOM     68  H   LEU A  11      -2.636  19.618  37.735  0.00  0.00    +0.150 HD
ATOM     69  O   VAL A  10      -3.738  20.759  34.996  0.00  0.00    -0.273 OA
BRANCH  67  70
ATOM     70  CA  LEU A  11      -1.423  20.932  36.525  0.00  0.00    +0.137 C 
BRANCH  70  71
ATOM     71  C   LEU A  11      -0.275  19.964  36.344  0.00  0.00    +0.227 C 
ATOM     72  O   LEU A  11      -0.223  18.894  36.947  0.00  0.00    -0.286 OA
ENDBRANCH  70  71
BRANCH  70  73
ATOM     73  CB  LEU A  11      -1.099  21.881  37.687  0.00  0.00    +0.028 C 
BRANCH  73  74
ATOM     74  CG  LEU A  11      -2.245  22.791  38.118  0.00  0.00    +0.002 C 
ATOM     75  CD2 LEU A  11      -1.891  23.428  39.454  0.00  0.00    +0.000 C 
ATOM     76  CD1 LEU A  11      -2.598  23.830  37.055  0.00  0.00    +0.000 C 
ENDBRANCH  73  74
ENDBRANCH  70  73
ENDBRANCH  67  70
ENDBRANCH  65  66
BRANCH  65  77
ATOM     77  CB  VAL A  10      -5.148  18.247  35.643  0.00  0.00    +0.027 C 
ATOM     78  CG2 VAL A  10      -6.497  17.583  35.883  0.00  0.00    +0.002 C 
ATOM     79  CG1 VAL A  10      -4.072  17.178  35.784  0.00  0.00    +0.002 C 
ENDBRANCH  65  77
ENDBRANCH  63  65
ENDBRANCH  60  61
BRANCH  60  80
ATOM     80  CB  THR A   9      -7.921  22.515  38.544  0.00  0.00    +0.137 C 
ATOM     81  CG2 THR A   9      -6.650  23.336  38.319  0.00  0.00    +0.034 C 
BRANCH  80  82
ATOM     82  OG1 THR A   9      -9.055  23.326  38.277  0.00  0.00    -0.382 OA
ATOM     83  HG1 THR A   9      -9.879  22.820  38.492  0.00  0.00    +0.210 HD
ENDBRANCH  80  82
ENDBRANCH  60  80
ENDBRANCH  57  60
ENDBRANCH  55  56
BRANCH  55  84
ATOM     84  CB  ASP A   8     -10.517  17.864  38.446  0.00  0.00    +0.143 C 
BRANCH  84  85
ATOM     85  CG  ASP A   8     -11.493  16.958  39.161  0.00  0.00    +0.367 C 
ATOM     86  OD2 ASP A   8     -12.257  17.407  40.016  0.00  0.00    -0.246 OA
ATOM     87  OD1 ASP A   8     -11.484  15.775  38.860  0.00  0.00    -0.246 OA
ENDBRANCH  84  85
ENDBRANCH  55  84
ENDBRANCH  53  55
ENDBRANCH  50  51
BRANCH  50  88
ATOM     88  CB  ASP A   7     -14.994  17.457  36.625  0.00  0.00    +0.143 C 
BRANCH  88  89
ATOM     89  CG  ASP A   7     -15.975  16.734  35.726  0.00  0.00    +0.367 C 
ATOM     90  OD2 ASP A   7     -15.908  15.506  35.720  0.00  0.00    -0.246 OA
ATOM     91  OD1 ASP A   7     -16.797  17.366  35.052  0.00  0.00    -0.246 OA
ENDBRANCH  88  89
ENDBRANCH  50  88
ENDBRANCH   2  50
TORSDOF 39
REMARK  Name = ../refined-set-2016/1bwb/1bwb_pocket.pdb
REMARK  249 active torsions:
REMARK  status: ('A' for Active; 'I' for Inactive)
REMARK    1  A    between atoms: _1  and  _3
REMARK    2  A    between atoms: _3  and  _4
REMARK    3  A    between atoms: _3  and  _6
REMARK    4  A    between atoms: _6  and  _7
REMARK    5  A    between atoms: _7  and  _8
REMARK    6  A    between atoms: _8  and  _9
REMARK    7  A    between atoms: _18  and  _20
REMARK    8  A    between atoms: _20  and  _21
REMARK    9  A    between atoms: _20  and  _23
REMARK   10  A    between atoms: _23  and  _24
REMARK   11  A    between atoms: _27  and  _29
REMARK   12  A    between atoms: _29  and  _30
REMARK   13  A    between atoms: _29  and  _32
REMARK   14  A    between atoms: _32  and  _33
REMARK   15  A    between atoms: _36  and  _38
REMARK   16  A    between atoms: _38  and  _39
REMARK   17  A    between atoms: _38  and  _41
REMARK   18  A    between atoms: _41  and  _42
REMARK   19  A    between atoms: _45  and  _47
REMARK   20  A    between atoms: _47  and  _48
REMARK   21  A    between atoms: _47  and  _50
REMARK   22  A    between atoms: _50  and  _51
REMARK   23  A    between atoms: _54  and  _56
REMARK   24  A    between atoms: _56  and  _57
REMARK   25  A    between atoms: _59  and  _61
REMARK   26  A    between atoms: _61  and  _62
REMARK   27  A    between atoms: _65  and  _67
REMARK   28  A    between atoms: _67  and  _68
REMARK   29  A    between atoms: _67  and  _70
REMARK   30  A    between atoms: _70  and  _71
REMARK   31  A    between atoms: _74  and  _76
REMARK   32  A    between atoms: _76  and  _77
REMARK   33  A    between atoms: _76  and  _79
REMARK   34  A    between atoms: _79  and  _80
REMARK   35  A    between atoms: _83  and  _85
REMARK   36  A    between atoms: _85  and  _86
REMARK   37  A    between atoms: _85  and  _88
REMARK   38  A    between atoms: _88  and  _89
REMARK   39  A    between atoms: _92  and  _94
REMARK   40  A    between atoms: _94  and  _95
REMARK   41  A    between atoms: _94  and  _97
REMARK   42  A    between atoms: _100  and  _102
REMARK   43  A    between atoms: _102  and  _103
REMARK   44  A    between atoms: _102  and  _105
REMARK   45  A    between atoms: _105  and  _106
REMARK   46  A    between atoms: _109  and  _111
REMARK   47  A    between atoms: _111  and  _112
REMARK   48  A    between atoms: _111  and  _114
REMARK   49  A    between atoms: _114  and  _115
REMARK   50  A    between atoms: _115  and  _116
REMARK   51  A    between atoms: _116  and  _117
REMARK   52  A    between atoms: _117  and  _118
REMARK   53  A    between atoms: _122  and  _124
REMARK   54  A    between atoms: _124  and  _125
REMARK   55  A    between atoms: _124  and  _127
REMARK   56  A    between atoms: _127  and  _128
REMARK   57  A    between atoms: _128  and  _129
REMARK   58  A    between atoms: _131  and  _133
REMARK   59  A    between atoms: _133  and  _134
REMARK   60  A    between atoms: _133  and  _136
REMARK   61  A    between atoms: _136  and  _137
REMARK   62  A    between atoms: _140  and  _142
REMARK   63  A    between atoms: _142  and  _143
REMARK   64  A    between atoms: _145  and  _147
REMARK   65  A    between atoms: _147  and  _148
REMARK   66  A    between atoms: _150  and  _152
REMARK   67  A    between atoms: _152  and  _153
REMARK   68  A    between atoms: _152  and  _155
REMARK   69  A    between atoms: _155  and  _156
REMARK   70  A    between atoms: _159  and  _161
REMARK   71  A    between atoms: _161  and  _162
REMARK   72  A    between atoms: _164  and  _166
REMARK   73  A    between atoms: _166  and  _167
REMARK   74  A    between atoms: _169  and  _171
REMARK   75  A    between atoms: _171  and  _172
REMARK   76  A    between atoms: _171  and  _174
REMARK   77  A    between atoms: _174  and  _175
REMARK   78  A    between atoms: _181  and  _183
REMARK   79  A    between atoms: _183  and  _184
REMARK   80  A    between atoms: _183  and  _186
REMARK   81  A    between atoms: _186  and  _187
REMARK   82  A    between atoms: _190  and  _192
REMARK   83  A    between atoms: _192  and  _193
REMARK   84  A    between atoms: _192  and  _195
REMARK   85  A    between atoms: _198  and  _200
REMARK   86  A    between atoms: _200  and  _201
REMARK   87  A    between atoms: _200  and  _203
REMARK   88  A    between atoms: _203  and  _204
REMARK   89  A    between atoms: _204  and  _205
REMARK   90  A    between atoms: _210  and  _212
REMARK   91  A    between atoms: _212  and  _213
REMARK   92  A    between atoms: _212  and  _215
REMARK   93  A    between atoms: _215  and  _216
REMARK   94  A    between atoms: _220  and  _221
REMARK   95  A    between atoms: _226  and  _228
REMARK   96  A    between atoms: _228  and  _229
REMARK   97  A    between atoms: _228  and  _231
REMARK   98  A    between atoms: _231  and  _232
REMARK   99  A    between atoms: _236  and  _237
REMARK  100  A    between atoms: _242  and  _244
REMARK  101  A    between atoms: _244  and  _245
REMARK  102  A    between atoms: _244  and  _247
REMARK  103  A    between atoms: _247  and  _248
REMARK  104  A    between atoms: _254  and  _256
REMARK  105  A    between atoms: _256  and  _257
REMARK  106  A    between atoms: _256  and  _259
REMARK  107  A    between atoms: _259  and  _260
REMARK  108  A    between atoms: _265  and  _267
REMARK  109  A    between atoms: _267  and  _268
REMARK  110  A    between atoms: _267  and  _270
REMARK  111  A    between atoms: _273  and  _275
REMARK  112  A    between atoms: _275  and  _276
REMARK  113  A    between atoms: _275  and  _278
REMARK  114  A    between atoms: _278  and  _279
REMARK  115  A    between atoms: _282  and  _284
REMARK  116  A    between atoms: _284  and  _285
REMARK  117  A    between atoms: _287  and  _289
REMARK  118  A    between atoms: _289  and  _290
REMARK  119  A    between atoms: _289  and  _292
REMARK  120  A    between atoms: _292  and  _293
REMARK  121  A    between atoms: _293  and  _294
REMARK  122  A    between atoms: _294  and  _295
REMARK  123  A    between atoms: _304  and  _306
REMARK  124  A    between atoms: _306  and  _307
REMARK  125  A    between atoms: _306  and  _309
REMARK  126  A    between atoms: _309  and  _310
REMARK  127  A    between atoms: _315  and  _317
REMARK  128  A    between atoms: _317  and  _318
REMARK  129  A    between atoms: _317  and  _320
REMARK  130  A    between atoms: _320  and  _321
REMARK  131  A    between atoms: _321  and  _322
REMARK  132  A    between atoms: _322  and  _323
REMARK  133  A    between atoms: _332  and  _334
REMARK  134  A    between atoms: _334  and  _335
REMARK  135  A    between atoms: _334  and  _337
REMARK  136  A    between atoms: _337  and  _338
REMARK  137  A    between atoms: _341  and  _343
REMARK  138  A    between atoms: _343  and  _344
REMARK  139  A    between atoms: _343  and  _346
REMARK  140  A    between atoms: _346  and  _347
REMARK  141  A    between atoms: _350  and  _352
REMARK  142  A    between atoms: _352  and  _353
REMARK  143  A    between atoms: _352  and  _355
REMARK  144  A    between atoms: _355  and  _356
REMARK  145  A    between atoms: _359  and  _361
REMARK  146  A    between atoms: _361  and  _362
REMARK  147  A    between atoms: _361  and  _364
REMARK  148  A    between atoms: _364  and  _365
REMARK  149  A    between atoms: _368  and  _370
REMARK  150  A    between atoms: _370  and  _371
REMARK  151  A    between atoms: _373  and  _375
REMARK  152  A    between atoms: _375  and  _376
REMARK  153  A    between atoms: _379  and  _381
REMARK  154  A    between atoms: _381  and  _382
REMARK  155  A    between atoms: _381  and  _384
REMARK  156  A    between atoms: _384  and  _385
REMARK  157  A    between atoms: _388  and  _390
REMARK  158  A    between atoms: _390  and  _391
REMARK  159  A    between atoms: _390  and  _393
REMARK  160  A    between atoms: _393  and  _394
REMARK  161  A    between atoms: _397  and  _399
REMARK  162  A    between atoms: _399  and  _400
REMARK  163  A    between atoms: _399  and  _402
REMARK  164  A    between atoms: _402  and  _403
REMARK  165  A    between atoms: _406  and  _408
REMARK  166  A    between atoms: _408  and  _409
REMARK  167  A    between atoms: _408  and  _411
REMARK  168  A    between atoms: _414  and  _416
REMARK  169  A    between atoms: _416  and  _417
REMARK  170  A    between atoms: _416  and  _419
REMARK  171  A    between atoms: _419  and  _420
REMARK  172  A    between atoms: _423  and  _425
REMARK  173  A    between atoms: _425  and  _426
REMARK  174  A    between atoms: _425  and  _428
REMARK  175  A    between atoms: _428  and  _429
REMARK  176  A    between atoms: _429  and  _430
REMARK  177  A    between atoms: _430  and  _431
REMARK  178  A    between atoms: _431  and  _432
REMARK  179  A    between atoms: _436  and  _438
REMARK  180  A    between atoms: _438  and  _439
REMARK  181  A    between atoms: _438  and  _441
REMARK  182  A    between atoms: _441  and  _442
REMARK  183  A    between atoms: _442  and  _443
REMARK  184  A    between atoms: _445  and  _447
REMARK  185  A    between atoms: _447  and  _448
REMARK  186  A    between atoms: _447  and  _450
REMARK  187  A    between atoms: _450  and  _451
REMARK  188  A    between atoms: _454  and  _456
REMARK  189  A    between atoms: _456  and  _457
REMARK  190  A    between atoms: _459  and  _461
REMARK  191  A    between atoms: _461  and  _462
REMARK  192  A    between atoms: _464  and  _466
REMARK  193  A    between atoms: _466  and  _467
REMARK  194  A    between atoms: _466  and  _469
REMARK  195  A    between atoms: _469  and  _470
REMARK  196  A    between atoms: _473  and  _475
REMARK  197  A    between atoms: _475  and  _476
REMARK  198  A    between atoms: _478  and  _480
REMARK  199  A    between atoms: _480  and  _481
REMARK  200  A    between atoms: _483  and  _485
REMARK  201  A    between atoms: _485  and  _486
REMARK  202  A    between atoms: _485  and  _488
REMARK  203  A    between atoms: _488  and  _489
REMARK  204  A    between atoms: _495  and  _497
REMARK  205  A    between atoms: _497  and  _498
REMARK  206  A    between atoms: _497  and  _500
REMARK  207  A    between atoms: _500  and  _501
REMARK  208  A    between atoms: _504  and  _506
REMARK  209  A    between atoms: _506  and  _507
REMARK  210  A    between atoms: _506  and  _509
REMARK  211  A    between atoms: _509  and  _510
REMARK  212  A    between atoms: _510  and  _511
REMARK  213  A    between atoms: _516  and  _518
REMARK  214  A    between atoms: _518  and  _519
REMARK  215  A    between atoms: _518  and  _521
REMARK  216  A    between atoms: _521  and  _522
REMARK  217  A    between atoms: _526  and  _527
REMARK  218  A    between atoms: _532  and  _534
REMARK  219  A    between atoms: _534  and  _535
REMARK  220  A    between atoms: _534  and  _537
REMARK  221  A    between atoms: _537  and  _538
REMARK  222  A    between atoms: _542  and  _543
REMARK  223  A    between atoms: _548  and  _550
REMARK  224  A    between atoms: _550  and  _551
REMARK  225  A    between atoms: _550  and  _553
REMARK  226  A    between atoms: _553  and  _554
REMARK  227  A    between atoms: _560  and  _562
REMARK  228  A    between atoms: _562  and  _563
REMARK  229  A    between atoms: _562  and  _565
REMARK  230  A    between atoms: _565  and  _566
REMARK  231  A    between atoms: _571  and  _573
REMARK  232  A    between atoms: _573  and  _574
REMARK  233  A    between atoms: _573  and  _576
REMARK  234  A    between atoms: _579  and  _581
REMARK  235  A    between atoms: _581  and  _582
REMARK  236  A    between atoms: _581  and  _584
REMARK  237  A    between atoms: _584  and  _585
REMARK  238  A    between atoms: _588  and  _590
REMARK  239  A    between atoms: _590  and  _591
REMARK  240  A    between atoms: _593  and  _595
REMARK  241  A    between atoms: _595  and  _596
REMARK  242  A    between atoms: _595  and  _598
REMARK  243  A    between atoms: _598  and  _599
REMARK  244  A    between atoms: _599  and  _600
REMARK  245  A    between atoms: _600  and  _601
REMARK  246  A    between atoms: _610  and  _612
REMARK  247  A    between atoms: _612  and  _613
REMARK  248  A    between atoms: _612  and  _615
REMARK  249  A    between atoms: _615  and  _616
REMARK                            x       y       z     vdW  Elec       q    Type
REMARK                         _______ _______ _______ _____ _____    ______ ____
ROOT
ATOM      1  C   GLY A   5      -9.405  10.791  28.893  0.00  0.00    +0.243 C 
ATOM      2  O   GLY A   5      -9.604   9.592  28.803  0.00  0.00    -0.273 OA
ATOM      3  N   ILE A   6      -9.250  11.557  27.832  0.00  0.00    -0.297 N 
ATOM      4  H   ILE A   6      -9.224  12.594  27.903  0.00  0.00    +0.150 HD
ENDROOT
BRANCH   3   5
ATOM      5  CA  ILE A   6      -9.117  10.871  26.554  0.00  0.00    +0.149 C 
BRANCH   5   6
ATOM      6  C   ILE A   6      -7.743  10.280  26.541  0.00  0.00    +0.241 C 
ATOM      7  O   ILE A   6      -6.747  10.982  26.584  0.00  0.00    -0.273 OA
ATOM      8  N   GLY A   7      -7.712   8.983  26.464  0.00  0.00    -0.295 N 
ATOM      9  H   GLY A   7      -8.579   8.409  26.486  0.00  0.00    +0.150 HD
BRANCH   8  10
ATOM     10  CA  GLY A   7      -6.396   8.385  26.345  0.00  0.00    +0.176 C 
BRANCH  10  11
ATOM     11  C   GLY A   7      -6.162   7.402  27.445  0.00  0.00    +0.243 C 
ATOM     12  N   GLY A   8      -6.904   7.566  28.515  0.00  0.00    -0.295 N 
ATOM     13  H   GLY A   8      -7.607   8.329  28.590  0.00  0.00    +0.150 HD
ATOM     14  O   GLY A   7      -5.361   6.497  27.325  0.00  0.00    -0.273 OA
BRANCH  12  15
ATOM     15  CA  GLY A   8      -6.682   6.620  29.581  0.00  0.00    +0.176 C 
BRANCH  15  16
ATOM     16  C   GLY A   8      -6.808   7.352  30.871  0.00  0.00    +0.243 C 
ATOM     17  N   PHE A   9      -6.136   6.824  31.869  0.00  0.00    -0.297 N 
ATOM     18  H   PHE A   9      -5.498   6.022  31.695  0.00  0.00    +0.150 HD
ATOM     19  O   GLY A   8      -7.511   8.346  30.959  0.00  0.00    -0.273 OA
BRANCH  17  20
ATOM     20  CA  PHE A   9      -6.280   7.356  33.217  0.00  0.00    +0.153 C 
BRANCH  20  21
ATOM     21  C   PHE A   9      -4.897   7.723  33.647  0.00  0.00    +0.241 C 
ATOM     22  N   ILE A  10      -4.777   8.693  34.530  0.00  0.00    -0.298 N 
ATOM     23  H   ILE A  10      -5.595   9.259  34.833  0.00  0.00    +0.150 HD
ATOM     24  O   PHE A   9      -3.947   7.117  33.183  0.00  0.00    -0.273 OA
BRANCH  22  25
ATOM     25  CA  ILE A  10      -3.437   8.936  35.063  0.00  0.00    +0.137 C 
BRANCH  25  26
ATOM     26  C   ILE A  10      -3.529   9.038  36.566  0.00  0.00    +0.227 C 
ATOM     27  O   ILE A  10      -4.590   9.274  37.126  0.00  0.00    -0.286 OA
ENDBRANCH  25  26
BRANCH  25  28
ATOM     28  CB  ILE A  10      -2.780  10.225  34.523  0.00  0.00    +0.026 C 
ATOM     29  CG2 ILE A  10      -2.357  10.067  33.066  0.00  0.00    +0.002 C 
BRANCH  28  30
ATOM     30  CG1 ILE A  10      -3.624  11.491  34.751  0.00  0.00    +0.002 C 
ATOM     31  CD1 ILE A  10      -2.911  12.838  34.585  0.00  0.00    +0.000 C 
ENDBRANCH  28  30
ENDBRANCH  25  28
ENDBRANCH  22  25
ENDBRANCH  20  21
BRANCH  20  32
ATOM     32  CB  PHE A   9      -6.748   6.247  34.172  0.00  0.00    +0.055 C 
BRANCH  32  33
ATOM     33  CG  PHE A   9      -8.261   6.050  34.261  0.00  0.00    -0.020 A 
ATOM     34  CD2 PHE A   9      -8.939   6.445  35.445  0.00  0.00    -0.004 A 
ATOM     35  CE2 PHE A   9     -10.331   6.246  35.584  0.00  0.00    -0.000 A 
ATOM     36  CZ  PHE A   9     -11.048   5.646  34.533  0.00  0.00    -0.000 A 
ATOM     37  CE1 PHE A   9     -10.387   5.247  33.350  0.00  0.00    -0.000 A 
ATOM     38  CD1 PHE A   9      -8.994   5.448  33.207  0.00  0.00    -0.004 A 
ENDBRANCH  32  33
ENDBRANCH  20  32
ENDBRANCH  17  20
ENDBRANCH  15  16
ENDBRANCH  12  15
ENDBRANCH  10  11
ENDBRANCH   8  10
ENDBRANCH   5   6
BRANCH   5  39
ATOM     39  CB  ILE A   6      -9.285  11.872  25.400  0.00  0.00    +0.027 C 
ATOM     40  CG2 ILE A   6      -8.431  11.596  24.142  0.00  0.00    +0.002 C 
BRANCH  39  41
ATOM     41  CG1 ILE A   6     -10.757  11.875  24.973  0.00  0.00    +0.002 C 
ATOM     42  CD1 ILE A   6     -11.045  12.747  23.739  0.00  0.00    +0.000 C 
ENDBRANCH  39  41
ENDBRANCH   5  39
ENDBRANCH   3   5
BRANCH   1  43
ATOM     43  CA  GLY A   5      -9.282  11.495  30.213  0.00  0.00    +0.176 C 
BRANCH  43  46
ATOM     44  C   GLY A   4      -9.518  10.823  32.498  0.00  0.00    +0.243 C 
ATOM     45  O   GLY A   4      -9.924  11.931  32.824  0.00  0.00    -0.273 OA
ATOM     46  N   GLY A   5      -9.151  10.513  31.275  0.00  0.00    -0.295 N 
ATOM     47  H   GLY A   5      -8.768   9.568  31.068  0.00  0.00    +0.150 HD
BRANCH  44  48
ATOM     48  CA  GLY A   4      -9.438   9.686  33.485  0.00  0.00    +0.176 C 
BRANCH  48  51
ATOM     49  C   ILE A   3      -8.354  10.019  35.556  0.00  0.00    +0.241 C 
ATOM     50  O   ILE A   3      -7.349   9.486  35.115  0.00  0.00    -0.273 OA
ATOM     51  N   GLY A   4      -9.451  10.157  34.864  0.00  0.00    -0.295 N 
ATOM     52  H   GLY A   4     -10.302  10.586  35.280  0.00  0.00    +0.150 HD
BRANCH  49  53
ATOM     53  CA  ILE A   3      -8.389  10.543  36.955  0.00  0.00    +0.149 C 
BRANCH  53  56
ATOM     54  C   MET A   2      -7.596   9.337  38.811  0.00  0.00    +0.241 C 
ATOM     55  O   MET A   2      -8.706   9.370  39.307  0.00  0.00    -0.273 OA
ATOM     56  N   ILE A   3      -7.296   9.906  37.673  0.00  0.00    -0.297 N 
ATOM     57  H   ILE A   3      -6.325   9.903  37.300  0.00  0.00    +0.150 HD
BRANCH  54  58
ATOM     58  CA  MET A   2      -6.473   8.677  39.515  0.00  0.00    +0.149 C 
BRANCH  58  61
ATOM     59  C   LYS A   1      -5.614   9.567  41.537  0.00  0.00    +0.238 C 
ATOM     60  O   LYS A   1      -4.540   9.716  40.970  0.00  0.00    -0.274 OA
ATOM     61  N   MET A   2      -6.626   8.969  40.940  0.00  0.00    -0.297 N 
ATOM     62  H   MET A   2      -7.492   8.717  41.458  0.00  0.00    +0.150 HD
BRANCH  59  63
ATOM     63  CA  LYS A   1      -5.830  10.040  42.967  0.00  0.00    +0.145 C 
BRANCH  63  64
ATOM     64  N   LYS A   1      -4.510  10.139  43.586  0.00  0.00    -0.238 NA
ATOM     65  H   LYS A   1      -3.679  10.386  43.012  0.00  0.00    +0.142 HD
ENDBRANCH  63  64
BRANCH  63  66
ATOM     66  CB  LYS A   1      -6.486  11.424  43.004  0.00  0.00    +0.026 C 
BRANCH  66  67
ATOM     67  CG  LYS A   1      -8.012  11.395  42.981  0.00  0.00    -0.000 C 
BRANCH  67  68
ATOM     68  CD  LYS A   1      -8.595  12.673  42.364  0.00  0.00    -0.024 C 
BRANCH  68  69
ATOM     69  CE  LYS A   1     -10.050  12.977  42.759  0.00  0.00    -0.086 C 
BRANCH  69  70
ATOM     70  NZ  LYS A   1     -10.916  11.815  42.513  0.00  0.00    +0.380 N 
ATOM     71  HZ1 LYS A   1     -10.579  11.008  43.075  0.00  0.00    -0.089 HD
ATOM     72  HZ2 LYS A   1     -11.892  12.047  42.788  0.00  0.00    -0.089 HD
ATOM     73  HZ3 LYS A   1     -10.888  11.571  41.502  0.00  0.00    -0.089 HD
ENDBRANCH  69  70
ENDBRANCH  68  69
ENDBRANCH  67  68
ENDBRANCH  66  67
ENDBRANCH  63  66
ENDBRANCH  59  63
ENDBRANCH  58  61
BRANCH  58  74
ATOM     74  CB  MET A   2      -6.539   7.183  39.258  0.00  0.00    +0.041 C 
BRANCH  74  75
ATOM     75  CG  MET A   2      -5.171   6.580  39.563  0.00  0.00    +0.060 C 
BRANCH  75  76
ATOM     76  SD  MET A   2      -5.260   4.806  39.747  0.00  0.00    -0.139 S 
ATOM     77  CE  MET A   2      -5.805   4.710  41.474  0.00  0.00    +0.069 C 
ENDBRANCH  75  76
ENDBRANCH  74  75
ENDBRANCH  58  74
ENDBRANCH  54  58
ENDBRANCH  53  56
BRANCH  53  78
ATOM     78  CB  ILE A   3      -8.186  12.049  36.977  0.00  0.00    +0.027 C 
ATOM     79  CG2 ILE A   3      -8.538  12.619  38.348  0.00  0.00    +0.002 C 
BRANCH  78  80
ATOM     80  CG1 ILE A   3      -6.766  12.429  36.586  0.00  0.00    +0.002 C 
ATOM     81  CD1 ILE A   3      -6.672  13.931  36.320  0.00  0.00    +0.000 C 
ENDBRANCH  78  80
ENDBRANCH  53  78
ENDBRANCH  49  53
ENDBRANCH  48  51
ENDBRANCH  44  48
ENDBRANCH  43  46
ENDBRANCH   1  43
TORSDOF 36
REMARK  Name = ../refined-set-2016/1bwb/1bwb_pocket.pdb
REMARK  249 active torsions:
REMARK  status: ('A' for Active; 'I' for Inactive)
REMARK    1  A    between atoms: _1  and  _3
REMARK    2  A    between atoms: _3  and  _4
REMARK    3  A    between atoms: _3  and  _6
REMARK    4  A    between atoms: _6  and  _7
REMARK    5  A    between atoms: _7  and  _8
REMARK    6  A    between atoms: _8  and  _9
REMARK    7  A    between atoms: _18  and  _20
REMARK    8  A    between atoms: _20  and  _21
REMARK    9  A    between atoms: _20  and  _23
REMARK   10  A    between atoms: _23  and  _24
REMARK   11  A    between atoms: _27  and  _29
REMARK   12  A    between atoms: _29  and  _30
REMARK   13  A    between atoms: _29  and  _32
REMARK   14  A    between atoms: _32  and  _33
REMARK   15  A    between atoms: _36  and  _38
REMARK   16  A    between atoms: _38  and  _39
REMARK   17  A    between atoms: _38  and  _41
REMARK   18  A    between atoms: _41  and  _42
REMARK   19  A    between atoms: _45  and  _47
REMARK   20  A    between atoms: _47  and  _48
REMARK   21  A    between atoms: _47  and  _50
REMARK   22  A    between atoms: _50  and  _51
REMARK   23  A    between atoms: _54  and  _56
REMARK   24  A    between atoms: _56  and  _57
REMARK   25  A    between atoms: _59  and  _61
REMARK   26  A    between atoms: _61  and  _62
REMARK   27  A    between atoms: _65  and  _67
REMARK   28  A    between atoms: _67  and  _68
REMARK   29  A    between atoms: _67  and  _70
REMARK   30  A    between atoms: _70  and  _71
REMARK   31  A    between atoms: _74  and  _76
REMARK   32  A    between atoms: _76  and  _77
REMARK   33  A    between atoms: _76  and  _79
REMARK   34  A    between atoms: _79  and  _80
REMARK   35  A    between atoms: _83  and  _85
REMARK   36  A    between atoms: _85  and  _86
REMARK   37  A    between atoms: _85  and  _88
REMARK   38  A    between atoms: _88  and  _89
REMARK   39  A    between atoms: _92  and  _94
REMARK   40  A    between atoms: _94  and  _95
REMARK   41  A    between atoms: _94  and  _97
REMARK   42  A    between atoms: _100  and  _102
REMARK   43  A    between atoms: _102  and  _103
REMARK   44  A    between atoms: _102  and  _105
REMARK   45  A    between atoms: _105  and  _106
REMARK   46  A    between atoms: _109  and  _111
REMARK   47  A    between atoms: _111  and  _112
REMARK   48  A    between atoms: _111  and  _114
REMARK   49  A    between atoms: _114  and  _115
REMARK   50  A    between atoms: _115  and  _116
REMARK   51  A    between atoms: _116  and  _117
REMARK   52  A    between atoms: _117  and  _118
REMARK   53  A    between atoms: _122  and  _124
REMARK   54  A    between atoms: _124  and  _125
REMARK   55  A    between atoms: _124  and  _127
REMARK   56  A    between atoms: _127  and  _128
REMARK   57  A    between atoms: _128  and  _129
REMARK   58  A    between atoms: _131  and  _133
REMARK   59  A    between atoms: _133  and  _134
REMARK   60  A    between atoms: _133  and  _136
REMARK   61  A    between atoms: _136  and  _137
REMARK   62  A    between atoms: _140  and  _142
REMARK   63  A    between atoms: _142  and  _143
REMARK   64  A    between atoms: _145  and  _147
REMARK   65  A    between atoms: _147  and  _148
REMARK   66  A    between atoms: _150  and  _152
REMARK   67  A    between atoms: _152  and  _153
REMARK   68  A    between atoms: _152  and  _155
REMARK   69  A    between atoms: _155  and  _156
REMARK   70  A    between atoms: _159  and  _161
REMARK   71  A    between atoms: _161  and  _162
REMARK   72  A    between atoms: _164  and  _166
REMARK   73  A    between atoms: _166  and  _167
REMARK   74  A    between atoms: _169  and  _171
REMARK   75  A    between atoms: _171  and  _172
REMARK   76  A    between atoms: _171  and  _174
REMARK   77  A    between atoms: _174  and  _175
REMARK   78  A    between atoms: _181  and  _183
REMARK   79  A    between atoms: _183  and  _184
REMARK   80  A    between atoms: _183  and  _186
REMARK   81  A    between atoms: _186  and  _187
REMARK   82  A    between atoms: _190  and  _192
REMARK   83  A    between atoms: _192  and  _193
REMARK   84  A    between atoms: _192  and  _195
REMARK   85  A    between atoms: _198  and  _200
REMARK   86  A    between atoms: _200  and  _201
REMARK   87  A    between atoms: _200  and  _203
REMARK   88  A    between atoms: _203  and  _204
REMARK   89  A    between atoms: _204  and  _205
REMARK   90  A    between atoms: _210  and  _212
REMARK   91  A    between atoms: _212  and  _213
REMARK   92  A    between atoms: _212  and  _215
REMARK   93  A    between atoms: _215  and  _216
REMARK   94  A    between atoms: _220  and  _221
REMARK   95  A    between atoms: _226  and  _228
REMARK   96  A    between atoms: _228  and  _229
REMARK   97  A    between atoms: _228  and  _231
REMARK   98  A    between atoms: _231  and  _232
REMARK   99  A    between atoms: _236  and  _237
REMARK  100  A    between atoms: _242  and  _244
REMARK  101  A    between atoms: _244  and  _245
REMARK  102  A    between atoms: _244  and  _247
REMARK  103  A    between atoms: _247  and  _248
REMARK  104  A    between atoms: _254  and  _256
REMARK  105  A    between atoms: _256  and  _257
REMARK  106  A    between atoms: _256  and  _259
REMARK  107  A    between atoms: _259  and  _260
REMARK  108  A    between atoms: _265  and  _267
REMARK  109  A    between atoms: _267  and  _268
REMARK  110  A    between atoms: _267  and  _270
REMARK  111  A    between atoms: _273  and  _275
REMARK  112  A    between atoms: _275  and  _276
REMARK  113  A    between atoms: _275  and  _278
REMARK  114  A    between atoms: _278  and  _279
REMARK  115  A    between atoms: _282  and  _284
REMARK  116  A    between atoms: _284  and  _285
REMARK  117  A    between atoms: _287  and  _289
REMARK  118  A    between atoms: _289  and  _290
REMARK  119  A    between atoms: _289  and  _292
REMARK  120  A    between atoms: _292  and  _293
REMARK  121  A    between atoms: _293  and  _294
REMARK  122  A    between atoms: _294  and  _295
REMARK  123  A    between atoms: _304  and  _306
REMARK  124  A    between atoms: _306  and  _307
REMARK  125  A    between atoms: _306  and  _309
REMARK  126  A    between atoms: _309  and  _310
REMARK  127  A    between atoms: _315  and  _317
REMARK  128  A    between atoms: _317  and  _318
REMARK  129  A    between atoms: _317  and  _320
REMARK  130  A    between atoms: _320  and  _321
REMARK  131  A    between atoms: _321  and  _322
REMARK  132  A    between atoms: _322  and  _323
REMARK  133  A    between atoms: _332  and  _334
REMARK  134  A    between atoms: _334  and  _335
REMARK  135  A    between atoms: _334  and  _337
REMARK  136  A    between atoms: _337  and  _338
REMARK  137  A    between atoms: _341  and  _343
REMARK  138  A    between atoms: _343  and  _344
REMARK  139  A    between atoms: _343  and  _346
REMARK  140  A    between atoms: _346  and  _347
REMARK  141  A    between atoms: _350  and  _352
REMARK  142  A    between atoms: _352  and  _353
REMARK  143  A    between atoms: _352  and  _355
REMARK  144  A    between atoms: _355  and  _356
REMARK  145  A    between atoms: _359  and  _361
REMARK  146  A    between atoms: _361  and  _362
REMARK  147  A    between atoms: _361  and  _364
REMARK  148  A    between atoms: _364  and  _365
REMARK  149  A    between atoms: _368  and  _370
REMARK  150  A    between atoms: _370  and  _371
REMARK  151  A    between atoms: _373  and  _375
REMARK  152  A    between atoms: _375  and  _376
REMARK  153  A    between atoms: _379  and  _381
REMARK  154  A    between atoms: _381  and  _382
REMARK  155  A    between atoms: _381  and  _384
REMARK  156  A    between atoms: _384  and  _385
REMARK  157  A    between atoms: _388  and  _390
REMARK  158  A    between atoms: _390  and  _391
REMARK  159  A    between atoms: _390  and  _393
REMARK  160  A    between atoms: _393  and  _394
REMARK  161  A    between atoms: _397  and  _399
REMARK  162  A    between atoms: _399  and  _400
REMARK  163  A    between atoms: _399  and  _402
REMARK  164  A    between atoms: _402  and  _403
REMARK  165  A    between atoms: _406  and  _408
REMARK  166  A    between atoms: _408  and  _409
REMARK  167  A    between atoms: _408  and  _411
REMARK  168  A    between atoms: _414  and  _416
REMARK  169  A    between atoms: _416  and  _417
REMARK  170  A    between atoms: _416  and  _419
REMARK  171  A    between atoms: _419  and  _420
REMARK  172  A    between atoms: _423  and  _425
REMARK  173  A    between atoms: _425  and  _426
REMARK  174  A    between atoms: _425  and  _428
REMARK  175  A    between atoms: _428  and  _429
REMARK  176  A    between atoms: _429  and  _430
REMARK  177  A    between atoms: _430  and  _431
REMARK  178  A    between atoms: _431  and  _432
REMARK  179  A    between atoms: _436  and  _438
REMARK  180  A    between atoms: _438  and  _439
REMARK  181  A    between atoms: _438  and  _441
REMARK  182  A    between atoms: _441  and  _442
REMARK  183  A    between atoms: _442  and  _443
REMARK  184  A    between atoms: _445  and  _447
REMARK  185  A    between atoms: _447  and  _448
REMARK  186  A    between atoms: _447  and  _450
REMARK  187  A    between atoms: _450  and  _451
REMARK  188  A    between atoms: _454  and  _456
REMARK  189  A    between atoms: _456  and  _457
REMARK  190  A    between atoms: _459  and  _461
REMARK  191  A    between atoms: _461  and  _462
REMARK  192  A    between atoms: _464  and  _466
REMARK  193  A    between atoms: _466  and  _467
REMARK  194  A    between atoms: _466  and  _469
REMARK  195  A    between atoms: _469  and  _470
REMARK  196  A    between atoms: _473  and  _475
REMARK  197  A    between atoms: _475  and  _476
REMARK  198  A    between atoms: _478  and  _480
REMARK  199  A    between atoms: _480  and  _481
REMARK  200  A    between atoms: _483  and  _485
REMARK  201  A    between atoms: _485  and  _486
REMARK  202  A    between atoms: _485  and  _488
REMARK  203  A    between atoms: _488  and  _489
REMARK  204  A    between atoms: _495  and  _497
REMARK  205  A    between atoms: _497  and  _498
REMARK  206  A    between atoms: _497  and  _500
REMARK  207  A    between atoms: _500  and  _501
REMARK  208  A    between atoms: _504  and  _506
REMARK  209  A    between atoms: _506  and  _507
REMARK  210  A    between atoms: _506  and  _509
REMARK  211  A    between atoms: _509  and  _510
REMARK  212  A    between atoms: _510  and  _511
REMARK  213  A    between atoms: _516  and  _518
REMARK  214  A    between atoms: _518  and  _519
REMARK  215  A    between atoms: _518  and  _521
REMARK  216  A    between atoms: _521  and  _522
REMARK  217  A    between atoms: _526  and  _527
REMARK  218  A    between atoms: _532  and  _534
REMARK  219  A    between atoms: _534  and  _535
REMARK  220  A    between atoms: _534  and  _537
REMARK  221  A    between atoms: _537  and  _538
REMARK  222  A    between atoms: _542  and  _543
REMARK  223  A    between atoms: _548  and  _550
REMARK  224  A    between atoms: _550  and  _551
REMARK  225  A    between atoms: _550  and  _553
REMARK  226  A    between atoms: _553  and  _554
REMARK  227  A    between atoms: _560  and  _562
REMARK  228  A    between atoms: _562  and  _563
REMARK  229  A    between atoms: _562  and  _565
REMARK  230  A    between atoms: _565  and  _566
REMARK  231  A    between atoms: _571  and  _573
REMARK  232  A    between atoms: _573  and  _574
REMARK  233  A    between atoms: _573  and  _576
REMARK  234  A    between atoms: _579  and  _581
REMARK  235  A    between atoms: _581  and  _582
REMARK  236  A    between atoms: _581  and  _584
REMARK  237  A    between atoms: _584  and  _585
REMARK  238  A    between atoms: _588  and  _590
REMARK  239  A    between atoms: _590  and  _591
REMARK  240  A    between atoms: _593  and  _595
REMARK  241  A    between atoms: _595  and  _596
REMARK  242  A    between atoms: _595  and  _598
REMARK  243  A    between atoms: _598  and  _599
REMARK  244  A    between atoms: _599  and  _600
REMARK  245  A    between atoms: _600  and  _601
REMARK  246  A    between atoms: _610  and  _612
REMARK  247  A    between atoms: _612  and  _613
REMARK  248  A    between atoms: _612  and  _615
REMARK  249  A    between atoms: _615  and  _616
REMARK                            x       y       z     vdW  Elec       q    Type
REMARK                         _______ _______ _______ _____ _____    ______ ____
ROOT
ATOM      1  CA  VAL A   1      -2.022  12.349  40.239  0.00  0.00    +0.133 C 
ENDROOT
BRANCH   1   2
ATOM      2  CB  VAL A   1      -3.036  13.371  39.683  0.00  0.00    +0.023 C 
ATOM      3  CG2 VAL A   1      -4.456  13.097  40.224  0.00  0.00    +0.002 C 
ATOM      4  CG1 VAL A   1      -2.991  13.463  38.143  0.00  0.00    +0.002 C 
ENDBRANCH   1   2
BRANCH   1   5
ATOM      5  N   VAL A   1      -2.456  10.999  39.909  0.00  0.00    -0.239 NA
ATOM      6  H   VAL A   1      -3.276  10.572  40.385  0.00  0.00    +0.142 HD
ENDBRANCH   1   5
BRANCH   1   7
ATOM      7  C   VAL A   1      -1.989  12.470  41.748  0.00  0.00    +0.224 C 
ATOM      8  O   VAL A   1      -2.561  11.643  42.459  0.00  0.00    -0.287 OA
ENDBRANCH   1   7
TORSDOF 3
REMARK  Name = ../refined-set-2016/1bwb/1bwb_pocket.pdb
REMARK  249 active torsions:
REMARK  status: ('A' for Active; 'I' for Inactive)
REMARK    1  A    between atoms: _1  and  _3
REMARK    2  A    between atoms: _3  and  _4
REMARK    3  A    between atoms: _3  and  _6
REMARK    4  A    between atoms: _6  and  _7
REMARK    5  A    between atoms: _7  and  _8
REMARK    6  A    between atoms: _8  and  _9
REMARK    7  A    between atoms: _18  and  _20
REMARK    8  A    between atoms: _20  and  _21
REMARK    9  A    between atoms: _20  and  _23
REMARK   10  A    between atoms: _23  and  _24
REMARK   11  A    between atoms: _27  and  _29
REMARK   12  A    between atoms: _29  and  _30
REMARK   13  A    between atoms: _29  and  _32
REMARK   14  A    between atoms: _32  and  _33
REMARK   15  A    between atoms: _36  and  _38
REMARK   16  A    between atoms: _38  and  _39
REMARK   17  A    between atoms: _38  and  _41
REMARK   18  A    between atoms: _41  and  _42
REMARK   19  A    between atoms: _45  and  _47
REMARK   20  A    between atoms: _47  and  _48
REMARK   21  A    between atoms: _47  and  _50
REMARK   22  A    between atoms: _50  and  _51
REMARK   23  A    between atoms: _54  and  _56
REMARK   24  A    between atoms: _56  and  _57
REMARK   25  A    between atoms: _59  and  _61
REMARK   26  A    between atoms: _61  and  _62
REMARK   27  A    between atoms: _65  and  _67
REMARK   28  A    between atoms: _67  and  _68
REMARK   29  A    between atoms: _67  and  _70
REMARK   30  A    between atoms: _70  and  _71
REMARK   31  A    between atoms: _74  and  _76
REMARK   32  A    between atoms: _76  and  _77
REMARK   33  A    between atoms: _76  and  _79
REMARK   34  A    between atoms: _79  and  _80
REMARK   35  A    between atoms: _83  and  _85
REMARK   36  A    between atoms: _85  and  _86
REMARK   37  A    between atoms: _85  and  _88
REMARK   38  A    between atoms: _88  and  _89
REMARK   39  A    between atoms: _92  and  _94
REMARK   40  A    between atoms: _94  and  _95
REMARK   41  A    between atoms: _94  and  _97
REMARK   42  A    between atoms: _100  and  _102
REMARK   43  A    between atoms: _102  and  _103
REMARK   44  A    between atoms: _102  and  _105
REMARK   45  A    between atoms: _105  and  _106
REMARK   46  A    between atoms: _109  and  _111
REMARK   47  A    between atoms: _111  and  _112
REMARK   48  A    between atoms: _111  and  _114
REMARK   49  A    between atoms: _114  and  _115
REMARK   50  A    between atoms: _115  and  _116
REMARK   51  A    between atoms: _116  and  _117
REMARK   52  A    between atoms: _117  and  _118
REMARK   53  A    between atoms: _122  and  _124
REMARK   54  A    between atoms: _124  and  _125
REMARK   55  A    between atoms: _124  and  _127
REMARK   56  A    between atoms: _127  and  _128
REMARK   57  A    between atoms: _128  and  _129
REMARK   58  A    between atoms: _131  and  _133
REMARK   59  A    between atoms: _133  and  _134
REMARK   60  A    between atoms: _133  and  _136
REMARK   61  A    between atoms: _136  and  _137
REMARK   62  A    between atoms: _140  and  _142
REMARK   63  A    between atoms: _142  and  _143
REMARK   64  A    between atoms: _145  and  _147
REMARK   65  A    between atoms: _147  and  _148
REMARK   66  A    between atoms: _150  and  _152
REMARK   67  A    between atoms: _152  and  _153
REMARK   68  A    between atoms: _152  and  _155
REMARK   69  A    between atoms: _155  and  _156
REMARK   70  A    between atoms: _159  and  _161
REMARK   71  A    between atoms: _161  and  _162
REMARK   72  A    between atoms: _164  and  _166
REMARK   73  A    between atoms: _166  and  _167
REMARK   74  A    between atoms: _169  and  _171
REMARK   75  A    between atoms: _171  and  _172
REMARK   76  A    between atoms: _171  and  _174
REMARK   77  A    between atoms: _174  and  _175
REMARK   78  A    between atoms: _181  and  _183
REMARK   79  A    between atoms: _183  and  _184
REMARK   80  A    between atoms: _183  and  _186
REMARK   81  A    between atoms: _186  and  _187
REMARK   82  A    between atoms: _190  and  _192
REMARK   83  A    between atoms: _192  and  _193
REMARK   84  A    between atoms: _192  and  _195
REMARK   85  A    between atoms: _198  and  _200
REMARK   86  A    between atoms: _200  and  _201
REMARK   87  A    between atoms: _200  and  _203
REMARK   88  A    between atoms: _203  and  _204
REMARK   89  A    between atoms: _204  and  _205
REMARK   90  A    between atoms: _210  and  _212
REMARK   91  A    between atoms: _212  and  _213
REMARK   92  A    between atoms: _212  and  _215
REMARK   93  A    between atoms: _215  and  _216
REMARK   94  A    between atoms: _220  and  _221
REMARK   95  A    between atoms: _226  and  _228
REMARK   96  A    between atoms: _228  and  _229
REMARK   97  A    between atoms: _228  and  _231
REMARK   98  A    between atoms: _231  and  _232
REMARK   99  A    between atoms: _236  and  _237
REMARK  100  A    between atoms: _242  and  _244
REMARK  101  A    between atoms: _244  and  _245
REMARK  102  A    between atoms: _244  and  _247
REMARK  103  A    between atoms: _247  and  _248
REMARK  104  A    between atoms: _254  and  _256
REMARK  105  A    between atoms: _256  and  _257
REMARK  106  A    between atoms: _256  and  _259
REMARK  107  A    between atoms: _259  and  _260
REMARK  108  A    between atoms: _265  and  _267
REMARK  109  A    between atoms: _267  and  _268
REMARK  110  A    between atoms: _267  and  _270
REMARK  111  A    between atoms: _273  and  _275
REMARK  112  A    between atoms: _275  and  _276
REMARK  113  A    between atoms: _275  and  _278
REMARK  114  A    between atoms: _278  and  _279
REMARK  115  A    between atoms: _282  and  _284
REMARK  116  A    between atoms: _284  and  _285
REMARK  117  A    between atoms: _287  and  _289
REMARK  118  A    between atoms: _289  and  _290
REMARK  119  A    between atoms: _289  and  _292
REMARK  120  A    between atoms: _292  and  _293
REMARK  121  A    between atoms: _293  and  _294
REMARK  122  A    between atoms: _294  and  _295
REMARK  123  A    between atoms: _304  and  _306
REMARK  124  A    between atoms: _306  and  _307
REMARK  125  A    between atoms: _306  and  _309
REMARK  126  A    between atoms: _309  and  _310
REMARK  127  A    between atoms: _315  and  _317
REMARK  128  A    between atoms: _317  and  _318
REMARK  129  A    between atoms: _317  and  _320
REMARK  130  A    between atoms: _320  and  _321
REMARK  131  A    between atoms: _321  and  _322
REMARK  132  A    between atoms: _322  and  _323
REMARK  133  A    between atoms: _332  and  _334
REMARK  134  A    between atoms: _334  and  _335
REMARK  135  A    between atoms: _334  and  _337
REMARK  136  A    between atoms: _337  and  _338
REMARK  137  A    between atoms: _341  and  _343
REMARK  138  A    between atoms: _343  and  _344
REMARK  139  A    between atoms: _343  and  _346
REMARK  140  A    between atoms: _346  and  _347
REMARK  141  A    between atoms: _350  and  _352
REMARK  142  A    between atoms: _352  and  _353
REMARK  143  A    between atoms: _352  and  _355
REMARK  144  A    between atoms: _355  and  _356
REMARK  145  A    between atoms: _359  and  _361
REMARK  146  A    between atoms: _361  and  _362
REMARK  147  A    between atoms: _361  and  _364
REMARK  148  A    between atoms: _364  and  _365
REMARK  149  A    between atoms: _368  and  _370
REMARK  150  A    between atoms: _370  and  _371
REMARK  151  A    between atoms: _373  and  _375
REMARK  152  A    between atoms: _375  and  _376
REMARK  153  A    between atoms: _379  and  _381
REMARK  154  A    between atoms: _381  and  _382
REMARK  155  A    between atoms: _381  and  _384
REMARK  156  A    between atoms: _384  and  _385
REMARK  157  A    between atoms: _388  and  _390
REMARK  158  A    between atoms: _390  and  _391
REMARK  159  A    between atoms: _390  and  _393
REMARK  160  A    between atoms: _393  and  _394
REMARK  161  A    between atoms: _397  and  _399
REMARK  162  A    between atoms: _399  and  _400
REMARK  163  A    between atoms: _399  and  _402
REMARK  164  A    between atoms: _402  and  _403
REMARK  165  A    between atoms: _406  and  _408
REMARK  166  A    between atoms: _408  and  _409
REMARK  167  A    between atoms: _408  and  _411
REMARK  168  A    between atoms: _414  and  _416
REMARK  169  A    between atoms: _416  and  _417
REMARK  170  A    between atoms: _416  and  _419
REMARK  171  A    between atoms: _419  and  _420
REMARK  172  A    between atoms: _423  and  _425
REMARK  173  A    between atoms: _425  and  _426
REMARK  174  A    between atoms: _425  and  _428
REMARK  175  A    between atoms: _428  and  _429
REMARK  176  A    between atoms: _429  and  _430
REMARK  177  A    between atoms: _430  and  _431
REMARK  178  A    between atoms: _431  and  _432
REMARK  179  A    between atoms: _436  and  _438
REMARK  180  A    between atoms: _438  and  _439
REMARK  181  A    between atoms: _438  and  _441
REMARK  182  A    between atoms: _441  and  _442
REMARK  183  A    between atoms: _442  and  _443
REMARK  184  A    between atoms: _445  and  _447
REMARK  185  A    between atoms: _447  and  _448
REMARK  186  A    between atoms: _447  and  _450
REMARK  187  A    between atoms: _450  and  _451
REMARK  188  A    between atoms: _454  and  _456
REMARK  189  A    between atoms: _456  and  _457
REMARK  190  A    between atoms: _459  and  _461
REMARK  191  A    between atoms: _461  and  _462
REMARK  192  A    between atoms: _464  and  _466
REMARK  193  A    between atoms: _466  and  _467
REMARK  194  A    between atoms: _466  and  _469
REMARK  195  A    between atoms: _469  and  _470
REMARK  196  A    between atoms: _473  and  _475
REMARK  197  A    between atoms: _475  and  _476
REMARK  198  A    between atoms: _478  and  _480
REMARK  199  A    between atoms: _480  and  _481
REMARK  200  A    between atoms: _483  and  _485
REMARK  201  A    between atoms: _485  and  _486
REMARK  202  A    between atoms: _485  and  _488
REMARK  203  A    between atoms: _488  and  _489
REMARK  204  A    between atoms: _495  and  _497
REMARK  205  A    between atoms: _497  and  _498
REMARK  206  A    between atoms: _497  and  _500
REMARK  207  A    between atoms: _500  and  _501
REMARK  208  A    between atoms: _504  and  _506
REMARK  209  A    between atoms: _506  and  _507
REMARK  210  A    between atoms: _506  and  _509
REMARK  211  A    between atoms: _509  and  _510
REMARK  212  A    between atoms: _510  and  _511
REMARK  213  A    between atoms: _516  and  _518
REMARK  214  A    between atoms: _518  and  _519
REMARK  215  A    between atoms: _518  and  _521
REMARK  216  A    between atoms: _521  and  _522
REMARK  217  A    between atoms: _526  and  _527
REMARK  218  A    between atoms: _532  and  _534
REMARK  219  A    between atoms: _534  and  _535
REMARK  220  A    between atoms: _534  and  _537
REMARK  221  A    between atoms: _537  and  _538
REMARK  222  A    between atoms: _542  and  _543
REMARK  223  A    between atoms: _548  and  _550
REMARK  224  A    between atoms: _550  and  _551
REMARK  225  A    between atoms: _550  and  _553
REMARK  226  A    between atoms: _553  and  _554
REMARK  227  A    between atoms: _560  and  _562
REMARK  228  A    between atoms: _562  and  _563
REMARK  229  A    between atoms: _562  and  _565
REMARK  230  A    between atoms: _565  and  _566
REMARK  231  A    between atoms: _571  and  _573
REMARK  232  A    between atoms: _573  and  _574
REMARK  233  A    between atoms: _573  and  _576
REMARK  234  A    between atoms: _579  and  _581
REMARK  235  A    between atoms: _581  and  _582
REMARK  236  A    between atoms: _581  and  _584
REMARK  237  A    between atoms: _584  and  _585
REMARK  238  A    between atoms: _588  and  _590
REMARK  239  A    between atoms: _590  and  _591
REMARK  240  A    between atoms: _593  and  _595
REMARK  241  A    between atoms: _595  and  _596
REMARK  242  A    between atoms: _595  and  _598
REMARK  243  A    between atoms: _598  and  _599
REMARK  244  A    between atoms: _599  and  _600
REMARK  245  A    between atoms: _600  and  _601
REMARK  246  A    between atoms: _610  and  _612
REMARK  247  A    between atoms: _612  and  _613
REMARK  248  A    between atoms: _612  and  _615
REMARK  249  A    between atoms: _615  and  _616
REMARK                            x       y       z     vdW  Elec       q    Type
REMARK                         _______ _______ _______ _____ _____    ______ ____
ROOT
ATOM      1  CB  GLN A   1      -5.566  15.065  45.438  0.00  0.00    +0.035 C 
ENDROOT
BRANCH   1   2
ATOM      2  CA  GLN A   1      -4.305  15.803  45.049  0.00  0.00    +0.134 C 
BRANCH   2   3
ATOM      3  N   GLN A   1      -3.292  14.808  44.749  0.00  0.00    -0.239 NA
ATOM      4  H   GLN A   1      -3.264  13.921  45.291  0.00  0.00    +0.142 HD
ENDBRANCH   2   3
BRANCH   2   5
ATOM      5  C   GLN A   1      -3.914  16.692  46.211  0.00  0.00    +0.224 C 
ATOM      6  O   GLN A   1      -3.581  16.175  47.268  0.00  0.00    -0.287 OA
ENDBRANCH   2   5
ENDBRANCH   1   2
BRANCH   1   7
ATOM      7  CG  GLN A   1      -6.654  16.074  45.815  0.00  0.00    +0.087 C 
BRANCH   7   8
ATOM      8  CD  GLN A   1      -7.950  15.417  46.196  0.00  0.00    +0.219 C 
ATOM      9  OE1 GLN A   1      -8.794  15.942  46.903  0.00  0.00    -0.275 OA
ATOM     10  NE2 GLN A   1      -8.115  14.224  45.684  0.00  0.00    -0.329 N 
ATOM     11 HE21 GLN A   1      -8.988  13.692  45.876  0.00  0.00    +0.145 HD
ATOM     12 HE22 GLN A   1      -7.373  13.808  45.085  0.00  0.00    +0.145 HD
ENDBRANCH   7   8
ENDBRANCH   1   7
TORSDOF 5
REMARK  Name = ../refined-set-2016/1bwb/1bwb_pocket.pdb
REMARK  249 active torsions:
REMARK  status: ('A' for Active; 'I' for Inactive)
REMARK    1  A    between atoms: _1  and  _3
REMARK    2  A    between atoms: _3  and  _4
REMARK    3  A    between atoms: _3  and  _6
REMARK    4  A    between atoms: _6  and  _7
REMARK    5  A    between atoms: _7  and  _8
REMARK    6  A    between atoms: _8  and  _9
REMARK    7  A    between atoms: _18  and  _20
REMARK    8  A    between atoms: _20  and  _21
REMARK    9  A    between atoms: _20  and  _23
REMARK   10  A    between atoms: _23  and  _24
REMARK   11  A    between atoms: _27  and  _29
REMARK   12  A    between atoms: _29  and  _30
REMARK   13  A    between atoms: _29  and  _32
REMARK   14  A    between atoms: _32  and  _33
REMARK   15  A    between atoms: _36  and  _38
REMARK   16  A    between atoms: _38  and  _39
REMARK   17  A    between atoms: _38  and  _41
REMARK   18  A    between atoms: _41  and  _42
REMARK   19  A    between atoms: _45  and  _47
REMARK   20  A    between atoms: _47  and  _48
REMARK   21  A    between atoms: _47  and  _50
REMARK   22  A    between atoms: _50  and  _51
REMARK   23  A    between atoms: _54  and  _56
REMARK   24  A    between atoms: _56  and  _57
REMARK   25  A    between atoms: _59  and  _61
REMARK   26  A    between atoms: _61  and  _62
REMARK   27  A    between atoms: _65  and  _67
REMARK   28  A    between atoms: _67  and  _68
REMARK   29  A    between atoms: _67  and  _70
REMARK   30  A    between atoms: _70  and  _71
REMARK   31  A    between atoms: _74  and  _76
REMARK   32  A    between atoms: _76  and  _77
REMARK   33  A    between atoms: _76  and  _79
REMARK   34  A    between atoms: _79  and  _80
REMARK   35  A    between atoms: _83  and  _85
REMARK   36  A    between atoms: _85  and  _86
REMARK   37  A    between atoms: _85  and  _88
REMARK   38  A    between atoms: _88  and  _89
REMARK   39  A    between atoms: _92  and  _94
REMARK   40  A    between atoms: _94  and  _95
REMARK   41  A    between atoms: _94  and  _97
REMARK   42  A    between atoms: _100  and  _102
REMARK   43  A    between atoms: _102  and  _103
REMARK   44  A    between atoms: _102  and  _105
REMARK   45  A    between atoms: _105  and  _106
REMARK   46  A    between atoms: _109  and  _111
REMARK   47  A    between atoms: _111  and  _112
REMARK   48  A    between atoms: _111  and  _114
REMARK   49  A    between atoms: _114  and  _115
REMARK   50  A    between atoms: _115  and  _116
REMARK   51  A    between atoms: _116  and  _117
REMARK   52  A    between atoms: _117  and  _118
REMARK   53  A    between atoms: _122  and  _124
REMARK   54  A    between atoms: _124  and  _125
REMARK   55  A    between atoms: _124  and  _127
REMARK   56  A    between atoms: _127  and  _128
REMARK   57  A    between atoms: _128  and  _129
REMARK   58  A    between atoms: _131  and  _133
REMARK   59  A    between atoms: _133  and  _134
REMARK   60  A    between atoms: _133  and  _136
REMARK   61  A    between atoms: _136  and  _137
REMARK   62  A    between atoms: _140  and  _142
REMARK   63  A    between atoms: _142  and  _143
REMARK   64  A    between atoms: _145  and  _147
REMARK   65  A    between atoms: _147  and  _148
REMARK   66  A    between atoms: _150  and  _152
REMARK   67  A    between atoms: _152  and  _153
REMARK   68  A    between atoms: _152  and  _155
REMARK   69  A    between atoms: _155  and  _156
REMARK   70  A    between atoms: _159  and  _161
REMARK   71  A    between atoms: _161  and  _162
REMARK   72  A    between atoms: _164  and  _166
REMARK   73  A    between atoms: _166  and  _167
REMARK   74  A    between atoms: _169  and  _171
REMARK   75  A    between atoms: _171  and  _172
REMARK   76  A    between atoms: _171  and  _174
REMARK   77  A    between atoms: _174  and  _175
REMARK   78  A    between atoms: _181  and  _183
REMARK   79  A    between atoms: _183  and  _184
REMARK   80  A    between atoms: _183  and  _186
REMARK   81  A    between atoms: _186  and  _187
REMARK   82  A    between atoms: _190  and  _192
REMARK   83  A    between atoms: _192  and  _193
REMARK   84  A    between atoms: _192  and  _195
REMARK   85  A    between atoms: _198  and  _200
REMARK   86  A    between atoms: _200  and  _201
REMARK   87  A    between atoms: _200  and  _203
REMARK   88  A    between atoms: _203  and  _204
REMARK   89  A    between atoms: _204  and  _205
REMARK   90  A    between atoms: _210  and  _212
REMARK   91  A    between atoms: _212  and  _213
REMARK   92  A    between atoms: _212  and  _215
REMARK   93  A    between atoms: _215  and  _216
REMARK   94  A    between atoms: _220  and  _221
REMARK   95  A    between atoms: _226  and  _228
REMARK   96  A    between atoms: _228  and  _229
REMARK   97  A    between atoms: _228  and  _231
REMARK   98  A    between atoms: _231  and  _232
REMARK   99  A    between atoms: _236  and  _237
REMARK  100  A    between atoms: _242  and  _244
REMARK  101  A    between atoms: _244  and  _245
REMARK  102  A    between atoms: _244  and  _247
REMARK  103  A    between atoms: _247  and  _248
REMARK  104  A    between atoms: _254  and  _256
REMARK  105  A    between atoms: _256  and  _257
REMARK  106  A    between atoms: _256  and  _259
REMARK  107  A    between atoms: _259  and  _260
REMARK  108  A    between atoms: _265  and  _267
REMARK  109  A    between atoms: _267  and  _268
REMARK  110  A    between atoms: _267  and  _270
REMARK  111  A    between atoms: _273  and  _275
REMARK  112  A    between atoms: _275  and  _276
REMARK  113  A    between atoms: _275  and  _278
REMARK  114  A    between atoms: _278  and  _279
REMARK  115  A    between atoms: _282  and  _284
REMARK  116  A    between atoms: _284  and  _285
REMARK  117  A    between atoms: _287  and  _289
REMARK  118  A    between atoms: _289  and  _290
REMARK  119  A    between atoms: _289  and  _292
REMARK  120  A    between atoms: _292  and  _293
REMARK  121  A    between atoms: _293  and  _294
REMARK  122  A    between atoms: _294  and  _295
REMARK  123  A    between atoms: _304  and  _306
REMARK  124  A    between atoms: _306  and  _307
REMARK  125  A    between atoms: _306  and  _309
REMARK  126  A    between atoms: _309  and  _310
REMARK  127  A    between atoms: _315  and  _317
REMARK  128  A    between atoms: _317  and  _318
REMARK  129  A    between atoms: _317  and  _320
REMARK  130  A    between atoms: _320  and  _321
REMARK  131  A    between atoms: _321  and  _322
REMARK  132  A    between atoms: _322  and  _323
REMARK  133  A    between atoms: _332  and  _334
REMARK  134  A    between atoms: _334  and  _335
REMARK  135  A    between atoms: _334  and  _337
REMARK  136  A    between atoms: _337  and  _338
REMARK  137  A    between atoms: _341  and  _343
REMARK  138  A    between atoms: _343  and  _344
REMARK  139  A    between atoms: _343  and  _346
REMARK  140  A    between atoms: _346  and  _347
REMARK  141  A    between atoms: _350  and  _352
REMARK  142  A    between atoms: _352  and  _353
REMARK  143  A    between atoms: _352  and  _355
REMARK  144  A    between atoms: _355  and  _356
REMARK  145  A    between atoms: _359  and  _361
REMARK  146  A    between atoms: _361  and  _362
REMARK  147  A    between atoms: _361  and  _364
REMARK  148  A    between atoms: _364  and  _365
REMARK  149  A    between atoms: _368  and  _370
REMARK  150  A    between atoms: _370  and  _371
REMARK  151  A    between atoms: _373  and  _375
REMARK  152  A    between atoms: _375  and  _376
REMARK  153  A    between atoms: _379  and  _381
REMARK  154  A    between atoms: _381  and  _382
REMARK  155  A    between atoms: _381  and  _384
REMARK  156  A    between atoms: _384  and  _385
REMARK  157  A    between atoms: _388  and  _390
REMARK  158  A    between atoms: _390  and  _391
REMARK  159  A    between atoms: _390  and  _393
REMARK  160  A    between atoms: _393  and  _394
REMARK  161  A    between atoms: _397  and  _399
REMARK  162  A    between atoms: _399  and  _400
REMARK  163  A    between atoms: _399  and  _402
REMARK  164  A    between atoms: _402  and  _403
REMARK  165  A    between atoms: _406  and  _408
REMARK  166  A    between atoms: _408  and  _409
REMARK  167  A    between atoms: _408  and  _411
REMARK  168  A    between atoms: _414  and  _416
REMARK  169  A    between atoms: _416  and  _417
REMARK  170  A    between atoms: _416  and  _419
REMARK  171  A    between atoms: _419  and  _420
REMARK  172  A    between atoms: _423  and  _425
REMARK  173  A    between atoms: _425  and  _426
REMARK  174  A    between atoms: _425  and  _428
REMARK  175  A    between atoms: _428  and  _429
REMARK  176  A    between atoms: _429  and  _430
REMARK  177  A    between atoms: _430  and  _431
REMARK  178  A    between atoms: _431  and  _432
REMARK  179  A    between atoms: _436  and  _438
REMARK  180  A    between atoms: _438  and  _439
REMARK  181  A    between atoms: _438  and  _441
REMARK  182  A    between atoms: _441  and  _442
REMARK  183  A    between atoms: _442  and  _443
REMARK  184  A    between atoms: _445  and  _447
REMARK  185  A    between atoms: _447  and  _448
REMARK  186  A    between atoms: _447  and  _450
REMARK  187  A    between atoms: _450  and  _451
REMARK  188  A    between atoms: _454  and  _456
REMARK  189  A    between atoms: _456  and  _457
REMARK  190  A    between atoms: _459  and  _461
REMARK  191  A    between atoms: _461  and  _462
REMARK  192  A    between atoms: _464  and  _466
REMARK  193  A    between atoms: _466  and  _467
REMARK  194  A    between atoms: _466  and  _469
REMARK  195  A    between atoms: _469  and  _470
REMARK  196  A    between atoms: _473  and  _475
REMARK  197  A    between atoms: _475  and  _476
REMARK  198  A    between atoms: _478  and  _480
REMARK  199  A    between atoms: _480  and  _481
REMARK  200  A    between atoms: _483  and  _485
REMARK  201  A    between atoms: _485  and  _486
REMARK  202  A    between atoms: _485  and  _488
REMARK  203  A    between atoms: _488  and  _489
REMARK  204  A    between atoms: _495  and  _497
REMARK  205  A    between atoms: _497  and  _498
REMARK  206  A    between atoms: _497  and  _500
REMARK  207  A    between atoms: _500  and  _501
REMARK  208  A    between atoms: _504  and  _506
REMARK  209  A    between atoms: _506  and  _507
REMARK  210  A    between atoms: _506  and  _509
REMARK  211  A    between atoms: _509  and  _510
REMARK  212  A    between atoms: _510  and  _511
REMARK  213  A    between atoms: _516  and  _518
REMARK  214  A    between atoms: _518  and  _519
REMARK  215  A    between atoms: _518  and  _521
REMARK  216  A    between atoms: _521  and  _522
REMARK  217  A    between atoms: _526  and  _527
REMARK  218  A    between atoms: _532  and  _534
REMARK  219  A    between atoms: _534  and  _535
REMARK  220  A    between atoms: _534  and  _537
REMARK  221  A    between atoms: _537  and  _538
REMARK  222  A    between atoms: _542  and  _543
REMARK  223  A    between atoms: _548  and  _550
REMARK  224  A    between atoms: _550  and  _551
REMARK  225  A    between atoms: _550  and  _553
REMARK  226  A    between atoms: _553  and  _554
REMARK  227  A    between atoms: _560  and  _562
REMARK  228  A    between atoms: _562  and  _563
REMARK  229  A    between atoms: _562  and  _565
REMARK  230  A    between atoms: _565  and  _566
REMARK  231  A    between atoms: _571  and  _573
REMARK  232  A    between atoms: _573  and  _574
REMARK  233  A    between atoms: _573  and  _576
REMARK  234  A    between atoms: _579  and  _581
REMARK  235  A    between atoms: _581  and  _582
REMARK  236  A    between atoms: _581  and  _584
REMARK  237  A    between atoms: _584  and  _585
REMARK  238  A    between atoms: _588  and  _590
REMARK  239  A    between atoms: _590  and  _591
REMARK  240  A    between atoms: _593  and  _595
REMARK  241  A    between atoms: _595  and  _596
REMARK  242  A    between atoms: _595  and  _598
REMARK  243  A    between atoms: _598  and  _599
REMARK  244  A    between atoms: _599  and  _600
REMARK  245  A    between atoms: _600  and  _601
REMARK  246  A    between atoms: _610  and  _612
REMARK  247  A    between atoms: _612  and  _613
REMARK  248  A    between atoms: _612  and  _615
REMARK  249  A    between atoms: _615  and  _616
REMARK                            x       y       z     vdW  Elec       q    Type
REMARK                         _______ _______ _______ _____ _____    ______ ____
ROOT
ATOM      1  CA  LEU A   1      -4.310  17.857  41.011  0.00  0.00    +0.133 C 
ENDROOT
BRANCH   1   2
ATOM      2  N   LEU A   1      -4.869  19.173  41.225  0.00  0.00    -0.239 NA
ATOM      3  H   LEU A   1      -5.255  19.706  40.420  0.00  0.00    +0.142 HD
ENDBRANCH   1   2
BRANCH   1   4
ATOM      4  C   LEU A   1      -3.031  18.116  40.275  0.00  0.00    +0.224 C 
ATOM      5  O   LEU A   1      -3.012  18.890  39.324  0.00  0.00    -0.287 OA
ENDBRANCH   1   4
BRANCH   1   6
ATOM      6  CB  LEU A   1      -5.290  17.103  40.109  0.00  0.00    +0.025 C 
BRANCH   6   7
ATOM      7  CG  LEU A   1      -6.375  16.245  40.779  0.00  0.00    +0.002 C 
ATOM      8  CD2 LEU A   1      -6.899  16.750  42.113  0.00  0.00    +0.000 C 
ATOM      9  CD1 LEU A   1      -7.520  15.988  39.802  0.00  0.00    +0.000 C 
ENDBRANCH   6   7
ENDBRANCH   1   6
TORSDOF 4
REMARK  Name = ../refined-set-2016/1bwb/1bwb_pocket.pdb
REMARK  249 active torsions:
REMARK  status: ('A' for Active; 'I' for Inactive)
REMARK    1  A    between atoms: _1  and  _3
REMARK    2  A    between atoms: _3  and  _4
REMARK    3  A    between atoms: _3  and  _6
REMARK    4  A    between atoms: _6  and  _7
REMARK    5  A    between atoms: _7  and  _8
REMARK    6  A    between atoms: _8  and  _9
REMARK    7  A    between atoms: _18  and  _20
REMARK    8  A    between atoms: _20  and  _21
REMARK    9  A    between atoms: _20  and  _23
REMARK   10  A    between atoms: _23  and  _24
REMARK   11  A    between atoms: _27  and  _29
REMARK   12  A    between atoms: _29  and  _30
REMARK   13  A    between atoms: _29  and  _32
REMARK   14  A    between atoms: _32  and  _33
REMARK   15  A    between atoms: _36  and  _38
REMARK   16  A    between atoms: _38  and  _39
REMARK   17  A    between atoms: _38  and  _41
REMARK   18  A    between atoms: _41  and  _42
REMARK   19  A    between atoms: _45  and  _47
REMARK   20  A    between atoms: _47  and  _48
REMARK   21  A    between atoms: _47  and  _50
REMARK   22  A    between atoms: _50  and  _51
REMARK   23  A    between atoms: _54  and  _56
REMARK   24  A    between atoms: _56  and  _57
REMARK   25  A    between atoms: _59  and  _61
REMARK   26  A    between atoms: _61  and  _62
REMARK   27  A    between atoms: _65  and  _67
REMARK   28  A    between atoms: _67  and  _68
REMARK   29  A    between atoms: _67  and  _70
REMARK   30  A    between atoms: _70  and  _71
REMARK   31  A    between atoms: _74  and  _76
REMARK   32  A    between atoms: _76  and  _77
REMARK   33  A    between atoms: _76  and  _79
REMARK   34  A    between atoms: _79  and  _80
REMARK   35  A    between atoms: _83  and  _85
REMARK   36  A    between atoms: _85  and  _86
REMARK   37  A    between atoms: _85  and  _88
REMARK   38  A    between atoms: _88  and  _89
REMARK   39  A    between atoms: _92  and  _94
REMARK   40  A    between atoms: _94  and  _95
REMARK   41  A    between atoms: _94  and  _97
REMARK   42  A    between atoms: _100  and  _102
REMARK   43  A    between atoms: _102  and  _103
REMARK   44  A    between atoms: _102  and  _105
REMARK   45  A    between atoms: _105  and  _106
REMARK   46  A    between atoms: _109  and  _111
REMARK   47  A    between atoms: _111  and  _112
REMARK   48  A    between atoms: _111  and  _114
REMARK   49  A    between atoms: _114  and  _115
REMARK   50  A    between atoms: _115  and  _116
REMARK   51  A    between atoms: _116  and  _117
REMARK   52  A    between atoms: _117  and  _118
REMARK   53  A    between atoms: _122  and  _124
REMARK   54  A    between atoms: _124  and  _125
REMARK   55  A    between atoms: _124  and  _127
REMARK   56  A    between atoms: _127  and  _128
REMARK   57  A    between atoms: _128  and  _129
REMARK   58  A    between atoms: _131  and  _133
REMARK   59  A    between atoms: _133  and  _134
REMARK   60  A    between atoms: _133  and  _136
REMARK   61  A    between atoms: _136  and  _137
REMARK   62  A    between atoms: _140  and  _142
REMARK   63  A    between atoms: _142  and  _143
REMARK   64  A    between atoms: _145  and  _147
REMARK   65  A    between atoms: _147  and  _148
REMARK   66  A    between atoms: _150  and  _152
REMARK   67  A    between atoms: _152  and  _153
REMARK   68  A    between atoms: _152  and  _155
REMARK   69  A    between atoms: _155  and  _156
REMARK   70  A    between atoms: _159  and  _161
REMARK   71  A    between atoms: _161  and  _162
REMARK   72  A    between atoms: _164  and  _166
REMARK   73  A    between atoms: _166  and  _167
REMARK   74  A    between atoms: _169  and  _171
REMARK   75  A    between atoms: _171  and  _172
REMARK   76  A    between atoms: _171  and  _174
REMARK   77  A    between atoms: _174  and  _175
REMARK   78  A    between atoms: _181  and  _183
REMARK   79  A    between atoms: _183  and  _184
REMARK   80  A    between atoms: _183  and  _186
REMARK   81  A    between atoms: _186  and  _187
REMARK   82  A    between atoms: _190  and  _192
REMARK   83  A    between atoms: _192  and  _193
REMARK   84  A    between atoms: _192  and  _195
REMARK   85  A    between atoms: _198  and  _200
REMARK   86  A    between atoms: _200  and  _201
REMARK   87  A    between atoms: _200  and  _203
REMARK   88  A    between atoms: _203  and  _204
REMARK   89  A    between atoms: _204  and  _205
REMARK   90  A    between atoms: _210  and  _212
REMARK   91  A    between atoms: _212  and  _213
REMARK   92  A    between atoms: _212  and  _215
REMARK   93  A    between atoms: _215  and  _216
REMARK   94  A    between atoms: _220  and  _221
REMARK   95  A    between atoms: _226  and  _228
REMARK   96  A    between atoms: _228  and  _229
REMARK   97  A    between atoms: _228  and  _231
REMARK   98  A    between atoms: _231  and  _232
REMARK   99  A    between atoms: _236  and  _237
REMARK  100  A    between atoms: _242  and  _244
REMARK  101  A    between atoms: _244  and  _245
REMARK  102  A    between atoms: _244  and  _247
REMARK  103  A    between atoms: _247  and  _248
REMARK  104  A    between atoms: _254  and  _256
REMARK  105  A    between atoms: _256  and  _257
REMARK  106  A    between atoms: _256  and  _259
REMARK  107  A    between atoms: _259  and  _260
REMARK  108  A    between atoms: _265  and  _267
REMARK  109  A    between atoms: _267  and  _268
REMARK  110  A    between atoms: _267  and  _270
REMARK  111  A    between atoms: _273  and  _275
REMARK  112  A    between atoms: _275  and  _276
REMARK  113  A    between atoms: _275  and  _278
REMARK  114  A    between atoms: _278  and  _279
REMARK  115  A    between atoms: _282  and  _284
REMARK  116  A    between atoms: _284  and  _285
REMARK  117  A    between atoms: _287  and  _289
REMARK  118  A    between atoms: _289  and  _290
REMARK  119  A    between atoms: _289  and  _292
REMARK  120  A    between atoms: _292  and  _293
REMARK  121  A    between atoms: _293  and  _294
REMARK  122  A    between atoms: _294  and  _295
REMARK  123  A    between atoms: _304  and  _306
REMARK  124  A    between atoms: _306  and  _307
REMARK  125  A    between atoms: _306  and  _309
REMARK  126  A    between atoms: _309  and  _310
REMARK  127  A    between atoms: _315  and  _317
REMARK  128  A    between atoms: _317  and  _318
REMARK  129  A    between atoms: _317  and  _320
REMARK  130  A    between atoms: _320  and  _321
REMARK  131  A    between atoms: _321  and  _322
REMARK  132  A    between atoms: _322  and  _323
REMARK  133  A    between atoms: _332  and  _334
REMARK  134  A    between atoms: _334  and  _335
REMARK  135  A    between atoms: _334  and  _337
REMARK  136  A    between atoms: _337  and  _338
REMARK  137  A    between atoms: _341  and  _343
REMARK  138  A    between atoms: _343  and  _344
REMARK  139  A    between atoms: _343  and  _346
REMARK  140  A    between atoms: _346  and  _347
REMARK  141  A    between atoms: _350  and  _352
REMARK  142  A    between atoms: _352  and  _353
REMARK  143  A    between atoms: _352  and  _355
REMARK  144  A    between atoms: _355  and  _356
REMARK  145  A    between atoms: _359  and  _361
REMARK  146  A    between atoms: _361  and  _362
REMARK  147  A    between atoms: _361  and  _364
REMARK  148  A    between atoms: _364  and  _365
REMARK  149  A    between atoms: _368  and  _370
REMARK  150  A    between atoms: _370  and  _371
REMARK  151  A    between atoms: _373  and  _375
REMARK  152  A    between atoms: _375  and  _376
REMARK  153  A    between atoms: _379  and  _381
REMARK  154  A    between atoms: _381  and  _382
REMARK  155  A    between atoms: _381  and  _384
REMARK  156  A    between atoms: _384  and  _385
REMARK  157  A    between atoms: _388  and  _390
REMARK  158  A    between atoms: _390  and  _391
REMARK  159  A    between atoms: _390  and  _393
REMARK  160  A    between atoms: _393  and  _394
REMARK  161  A    between atoms: _397  and  _399
REMARK  162  A    between atoms: _399  and  _400
REMARK  163  A    between atoms: _399  and  _402
REMARK  164  A    between atoms: _402  and  _403
REMARK  165  A    between atoms: _406  and  _408
REMARK  166  A    between atoms: _408  and  _409
REMARK  167  A    between atoms: _408  and  _411
REMARK  168  A    between atoms: _414  and  _416
REMARK  169  A    between atoms: _416  and  _417
REMARK  170  A    between atoms: _416  and  _419
REMARK  171  A    between atoms: _419  and  _420
REMARK  172  A    between atoms: _423  and  _425
REMARK  173  A    between atoms: _425  and  _426
REMARK  174  A    between atoms: _425  and  _428
REMARK  175  A    between atoms: _428  and  _429
REMARK  176  A    between atoms: _429  and  _430
REMARK  177  A    between atoms: _430  and  _431
REMARK  178  A    between atoms: _431  and  _432
REMARK  179  A    between atoms: _436  and  _438
REMARK  180  A    between atoms: _438  and  _439
REMARK  181  A    between atoms: _438  and  _441
REMARK  182  A    between atoms: _441  and  _442
REMARK  183  A    between atoms: _442  and  _443
REMARK  184  A    between atoms: _445  and  _447
REMARK  185  A    between atoms: _447  and  _448
REMARK  186  A    between atoms: _447  and  _450
REMARK  187  A    between atoms: _450  and  _451
REMARK  188  A    between atoms: _454  and  _456
REMARK  189  A    between atoms: _456  and  _457
REMARK  190  A    between atoms: _459  and  _461
REMARK  191  A    between atoms: _461  and  _462
REMARK  192  A    between atoms: _464  and  _466
REMARK  193  A    between atoms: _466  and  _467
REMARK  194  A    between atoms: _466  and  _469
REMARK  195  A    between atoms: _469  and  _470
REMARK  196  A    between atoms: _473  and  _475
REMARK  197  A    between atoms: _475  and  _476
REMARK  198  A    between atoms: _478  and  _480
REMARK  199  A    between atoms: _480  and  _481
REMARK  200  A    between atoms: _483  and  _485
REMARK  201  A    between atoms: _485  and  _486
REMARK  202  A    between atoms: _485  and  _488
REMARK  203  A    between atoms: _488  and  _489
REMARK  204  A    between atoms: _495  and  _497
REMARK  205  A    between atoms: _497  and  _498
REMARK  206  A    between atoms: _497  and  _500
REMARK  207  A    between atoms: _500  and  _501
REMARK  208  A    between atoms: _504  and  _506
REMARK  209  A    between atoms: _506  and  _507
REMARK  210  A    between atoms: _506  and  _509
REMARK  211  A    between atoms: _509  and  _510
REMARK  212  A    between atoms: _510  and  _511
REMARK  213  A    between atoms: _516  and  _518
REMARK  214  A    between atoms: _518  and  _519
REMARK  215  A    between atoms: _518  and  _521
REMARK  216  A    between atoms: _521  and  _522
REMARK  217  A    between atoms: _526  and  _527
REMARK  218  A    between atoms: _532  and  _534
REMARK  219  A    between atoms: _534  and  _535
REMARK  220  A    between atoms: _534  and  _537
REMARK  221  A    between atoms: _537  and  _538
REMARK  222  A    between atoms: _542  and  _543
REMARK  223  A    between atoms: _548  and  _550
REMARK  224  A    between atoms: _550  and  _551
REMARK  225  A    between atoms: _550  and  _553
REMARK  226  A    between atoms: _553  and  _554
REMARK  227  A    between atoms: _560  and  _562
REMARK  228  A    between atoms: _562  and  _563
REMARK  229  A    between atoms: _562  and  _565
REMARK  230  A    between atoms: _565  and  _566
REMARK  231  A    between atoms: _571  and  _573
REMARK  232  A    between atoms: _573  and  _574
REMARK  233  A    between atoms: _573  and  _576
REMARK  234  A    between atoms: _579  and  _581
REMARK  235  A    between atoms: _581  and  _582
REMARK  236  A    between atoms: _581  and  _584
REMARK  237  A    between atoms: _584  and  _585
REMARK  238  A    between atoms: _588  and  _590
REMARK  239  A    between atoms: _590  and  _591
REMARK  240  A    between atoms: _593  and  _595
REMARK  241  A    between atoms: _595  and  _596
REMARK  242  A    between atoms: _595  and  _598
REMARK  243  A    between atoms: _598  and  _599
REMARK  244  A    between atoms: _599  and  _600
REMARK  245  A    between atoms: _600  and  _601
REMARK  246  A    between atoms: _610  and  _612
REMARK  247  A    between atoms: _612  and  _613
REMARK  248  A    between atoms: _612  and  _615
REMARK  249  A    between atoms: _615  and  _616
REMARK                            x       y       z     vdW  Elec       q    Type
REMARK                         _______ _______ _______ _____ _____    ______ ____
ROOT
ATOM      1  C   ASN A   5      -3.568  23.208  32.341  0.00  0.00    +0.241 C 
ATOM      2  N   VAL A   6      -4.503  22.672  33.105  0.00  0.00    -0.297 N 
ATOM      3  H   VAL A   6      -4.235  22.164  33.972  0.00  0.00    +0.150 HD
ATOM      4  O   ASN A   5      -3.821  23.956  31.401  0.00  0.00    -0.273 OA
ENDROOT
BRANCH   1   5
ATOM      5  CA  ASN A   5      -2.149  22.851  32.678  0.00  0.00    +0.158 C 
BRANCH   5   7
ATOM      6  C   PHE A   4      -1.678  21.327  30.902  0.00  0.00    +0.241 C 
ATOM      7  N   ASN A   5      -1.459  22.516  31.434  0.00  0.00    -0.297 N 
ATOM      8  H   ASN A   5      -0.814  23.194  30.981  0.00  0.00    +0.150 HD
ATOM      9  O   PHE A   4      -2.437  20.501  31.387  0.00  0.00    -0.273 OA
BRANCH   6  10
ATOM     10  CA  PHE A   4      -0.864  21.024  29.669  0.00  0.00    +0.153 C 
BRANCH  10  12
ATOM     11  C   PRO A   3       0.448  19.099  28.982  0.00  0.00    +0.241 C 
ATOM     12  N   PHE A   4      -0.617  19.581  29.629  0.00  0.00    -0.297 N 
ATOM     13  H   PHE A   4      -1.273  18.929  30.106  0.00  0.00    +0.150 HD
ATOM     14  O   PRO A   3       1.289  19.807  28.455  0.00  0.00    -0.273 OA
BRANCH  11  21
ATOM     15  C   THR A   2       0.037  16.803  31.066  0.00  0.00    +0.246 C 
ATOM     16  O   THR A   2       1.095  17.245  31.475  0.00  0.00    -0.273 OA
ATOM     17  N   PRO A   3      -0.320  16.853  29.788  0.00  0.00    -0.272 N 
ATOM     18  CD  PRO A   3      -1.435  16.178  29.131  0.00  0.00    +0.094 C 
ATOM     19  CG  PRO A   3      -0.968  16.028  27.691  0.00  0.00    +0.024 C 
ATOM     20  CB  PRO A   3      -0.029  17.211  27.468  0.00  0.00    +0.031 C 
ATOM     21  CA  PRO A   3       0.527  17.599  28.849  0.00  0.00    +0.152 C 
BRANCH  15  22
ATOM     22  CA  THR A   2      -0.929  16.156  32.038  0.00  0.00    +0.176 C 
BRANCH  22  24
ATOM     23  C   PRO A   1       0.504  14.547  33.047  0.00  0.00    +0.239 C 
ATOM     24  N   THR A   2      -0.103  15.705  33.153  0.00  0.00    -0.295 N 
ATOM     25  H   THR A   2       0.002  16.286  34.009  0.00  0.00    +0.150 HD
ATOM     26  O   PRO A   1       0.236  13.772  32.137  0.00  0.00    -0.274 OA
BRANCH  23  31
ATOM     27  N   PRO A   1       1.036  14.258  35.505  0.00  0.00    -0.210 NA
ATOM     28  CD  PRO A   1       0.713  12.922  36.015  0.00  0.00    +0.089 C 
ATOM     29  CG  PRO A   1       1.075  11.994  34.870  0.00  0.00    +0.021 C 
ATOM     30  CB  PRO A   1       2.106  12.809  34.090  0.00  0.00    +0.028 C 
ATOM     31  CA  PRO A   1       1.557  14.252  34.132  0.00  0.00    +0.149 C 
ENDBRANCH  23  31
ENDBRANCH  22  24
BRANCH  22  32
ATOM     32  CB  THR A   2      -1.941  17.159  32.619  0.00  0.00    +0.137 C 
ATOM     33  CG2 THR A   2      -1.242  18.178  33.527  0.00  0.00    +0.034 C 
BRANCH  32  34
ATOM     34  OG1 THR A   2      -2.688  17.825  31.581  0.00  0.00    -0.382 OA
ATOM     35  HG1 THR A   2      -2.064  18.318  30.991  0.00  0.00    +0.210 HD
ENDBRANCH  32  34
ENDBRANCH  22  32
ENDBRANCH  15  22
ENDBRANCH  11  21
ENDBRANCH  10  12
BRANCH  10  36
ATOM     36  CB  PHE A   4      -1.604  21.513  28.388  0.00  0.00    +0.055 C 
BRANCH  36  37
ATOM     37  CG  PHE A   4      -1.333  22.986  28.218  0.00  0.00    -0.020 A 
ATOM     38  CD2 PHE A   4      -2.295  23.944  28.618  0.00  0.00    -0.004 A 
ATOM     39  CE2 PHE A   4      -1.975  25.324  28.581  0.00  0.00    -0.000 A 
ATOM     40  CZ  PHE A   4      -0.702  25.759  28.138  0.00  0.00    -0.000 A 
ATOM     41  CE1 PHE A   4       0.251  24.806  27.721  0.00  0.00    -0.000 A 
ATOM     42  CD1 PHE A   4      -0.065  23.418  27.759  0.00  0.00    -0.004 A 
ENDBRANCH  36  37
ENDBRANCH  10  36
ENDBRANCH   6  10
ENDBRANCH   5   7
BRANCH   5  43
ATOM     43  CB  ASN A   5      -1.519  24.086  33.354  0.00  0.00    +0.114 C 
BRANCH  43  44
ATOM     44  CG  ASN A   5      -0.064  23.880  33.741  0.00  0.00    +0.222 C 
ATOM     45  OD1 ASN A   5       0.291  22.949  34.439  0.00  0.00    -0.275 OA
ATOM     46  ND2 ASN A   5       0.803  24.760  33.262  0.00  0.00    -0.329 N 
ATOM     47 HD21 ASN A   5       1.815  24.664  33.480  0.00  0.00    +0.145 HD
ATOM     48 HD22 ASN A   5       0.471  25.546  32.668  0.00  0.00    +0.145 HD
ENDBRANCH  43  44
ENDBRANCH   5  43
ENDBRANCH   1   5
BRANCH   2  49
ATOM     49  CA  VAL A   6      -5.917  22.790  32.737  0.00  0.00    +0.149 C 
BRANCH  49  50
ATOM     50  C   VAL A   6      -6.656  23.350  33.946  0.00  0.00    +0.241 C 
ATOM     51  O   VAL A   6      -6.565  22.807  35.039  0.00  0.00    -0.273 OA
ATOM     52  N   ILE A   7      -7.380  24.441  33.748  0.00  0.00    -0.297 N 
ATOM     53  H   ILE A   7      -7.304  24.966  32.853  0.00  0.00    +0.150 HD
BRANCH  52  54
ATOM     54  CA  ILE A   7      -8.291  24.904  34.801  0.00  0.00    +0.149 C 
BRANCH  54  55
ATOM     55  C   ILE A   7      -9.676  24.356  34.504  0.00  0.00    +0.241 C 
ATOM     56  N   GLY A   8     -10.186  23.560  35.434  0.00  0.00    -0.295 N 
ATOM     57  H   GLY A   8      -9.670  23.445  36.330  0.00  0.00    +0.150 HD
ATOM     58  O   ILE A   7     -10.227  24.619  33.451  0.00  0.00    -0.273 OA
BRANCH  56  59
ATOM     59  CA  GLY A   8     -11.439  22.840  35.252  0.00  0.00    +0.176 C 
BRANCH  59  60
ATOM     60  C   GLY A   8     -12.516  23.533  36.018  0.00  0.00    +0.243 C 
ATOM     61  O   GLY A   8     -12.319  24.572  36.638  0.00  0.00    -0.273 OA
ATOM     62  N   ARG A   9     -13.699  22.969  35.949  0.00  0.00    -0.297 N 
ATOM     63  H   ARG A   9     -13.807  21.997  35.595  0.00  0.00    +0.150 HD
BRANCH  62  64
ATOM     64  CA  ARG A   9     -14.859  23.743  36.382  0.00  0.00    +0.149 C 
BRANCH  64  65
ATOM     65  C   ARG A   9     -14.929  24.033  37.877  0.00  0.00    +0.241 C 
ATOM     66  N   ASN A  10     -14.271  23.186  38.664  0.00  0.00    -0.298 N 
ATOM     67  H   ASN A  10     -13.863  22.311  38.277  0.00  0.00    +0.150 HD
ATOM     68  O   ARG A   9     -15.498  25.032  38.300  0.00  0.00    -0.273 OA
BRANCH  66  69
ATOM     69  CA  ASN A  10     -14.131  23.509  40.091  0.00  0.00    +0.146 C 
BRANCH  69  70
ATOM     70  C   ASN A  10     -13.556  24.893  40.443  0.00  0.00    +0.227 C 
ATOM     71  O   ASN A  10     -13.882  25.490  41.454  0.00  0.00    -0.286 OA
ENDBRANCH  69  70
BRANCH  69  72
ATOM     72  CB  ASN A  10     -13.362  22.378  40.817  0.00  0.00    +0.112 C 
BRANCH  72  73
ATOM     73  CG  ASN A  10     -11.862  22.432  40.562  0.00  0.00    +0.222 C 
ATOM     74  ND2 ASN A  10     -11.100  22.471  41.639  0.00  0.00    -0.329 N 
ATOM     75 HD21 ASN A  10     -11.533  22.439  42.584  0.00  0.00    +0.145 HD
ATOM     76 HD22 ASN A  10     -10.066  22.533  41.543  0.00  0.00    +0.145 HD
ATOM     77  OD1 ASN A  10     -11.391  22.467  39.437  0.00  0.00    -0.275 OA
ENDBRANCH  72  73
ENDBRANCH  69  72
ENDBRANCH  66  69
ENDBRANCH  64  65
BRANCH  64  78
ATOM     78  CB  ARG A   9     -16.120  23.012  35.965  0.00  0.00    +0.033 C 
BRANCH  78  79
ATOM     79  CG  ARG A   9     -16.461  22.985  34.470  0.00  0.00    +0.045 C 
BRANCH  79  80
ATOM     80  CD  ARG A   9     -17.462  21.848  34.210  0.00  0.00    +0.174 C 
BRANCH  80  81
ATOM     81  NE  ARG A   9     -18.476  21.812  35.246  0.00  0.00    -0.265 N 
ATOM     82  CZ  ARG A   9     -18.713  20.775  36.068  0.00  0.00    +0.342 C 
ATOM     83  NH2 ARG A   9     -19.446  21.026  37.124  0.00  0.00    -0.292 N 
ATOM     84 HH21 ARG A   9     -19.665  20.265  37.798  0.00  0.00    +0.255 HD
ATOM     85 HH22 ARG A   9     -19.809  21.986  37.288  0.00  0.00    +0.255 HD
ATOM     86  NH1 ARG A   9     -18.267  19.536  35.903  0.00  0.00    -0.292 N 
ATOM     87 HH11 ARG A   9     -18.506  18.800  36.598  0.00  0.00    +0.255 HD
ATOM     88 HH12 ARG A   9     -17.678  19.301  35.079  0.00  0.00    +0.255 HD
ATOM     89  HE  ARG A   9     -19.069  22.658  35.363  0.00  0.00    +0.259 HD
ENDBRANCH  80  81
ENDBRANCH  79  80
ENDBRANCH  78  79
ENDBRANCH  64  78
ENDBRANCH  62  64
ENDBRANCH  59  60
ENDBRANCH  56  59
ENDBRANCH  54  55
BRANCH  54  90
ATOM     90  CB  ILE A   7      -8.335  26.449  34.859  0.00  0.00    +0.027 C 
ATOM     91  CG2 ILE A   7      -9.201  26.956  36.018  0.00  0.00    +0.002 C 
BRANCH  90  92
ATOM     92  CG1 ILE A   7      -6.968  27.157  34.916  0.00  0.00    +0.002 C 
ATOM     93  CD1 ILE A   7      -6.119  26.855  36.145  0.00  0.00    +0.000 C 
ENDBRANCH  90  92
ENDBRANCH  54  90
ENDBRANCH  52  54
ENDBRANCH  49  50
BRANCH  49  94
ATOM     94  CB  VAL A   6      -6.386  21.339  32.341  0.00  0.00    +0.027 C 
ATOM     95  CG2 VAL A   6      -7.890  21.103  32.353  0.00  0.00    +0.002 C 
ATOM     96  CG1 VAL A   6      -5.860  20.952  30.958  0.00  0.00    +0.002 C 
ENDBRANCH  49  94
ENDBRANCH   2  49
TORSDOF 33
REMARK  Name = ../refined-set-2016/1bwb/1bwb_pocket.pdb
REMARK  249 active torsions:
REMARK  status: ('A' for Active; 'I' for Inactive)
REMARK    1  A    between atoms: _1  and  _3
REMARK    2  A    between atoms: _3  and  _4
REMARK    3  A    between atoms: _3  and  _6
REMARK    4  A    between atoms: _6  and  _7
REMARK    5  A    between atoms: _7  and  _8
REMARK    6  A    between atoms: _8  and  _9
REMARK    7  A    between atoms: _18  and  _20
REMARK    8  A    between atoms: _20  and  _21
REMARK    9  A    between atoms: _20  and  _23
REMARK   10  A    between atoms: _23  and  _24
REMARK   11  A    between atoms: _27  and  _29
REMARK   12  A    between atoms: _29  and  _30
REMARK   13  A    between atoms: _29  and  _32
REMARK   14  A    between atoms: _32  and  _33
REMARK   15  A    between atoms: _36  and  _38
REMARK   16  A    between atoms: _38  and  _39
REMARK   17  A    between atoms: _38  and  _41
REMARK   18  A    between atoms: _41  and  _42
REMARK   19  A    between atoms: _45  and  _47
REMARK   20  A    between atoms: _47  and  _48
REMARK   21  A    between atoms: _47  and  _50
REMARK   22  A    between atoms: _50  and  _51
REMARK   23  A    between atoms: _54  and  _56
REMARK   24  A    between atoms: _56  and  _57
REMARK   25  A    between atoms: _59  and  _61
REMARK   26  A    between atoms: _61  and  _62
REMARK   27  A    between atoms: _65  and  _67
REMARK   28  A    between atoms: _67  and  _68
REMARK   29  A    between atoms: _67  and  _70
REMARK   30  A    between atoms: _70  and  _71
REMARK   31  A    between atoms: _74  and  _76
REMARK   32  A    between atoms: _76  and  _77
REMARK   33  A    between atoms: _76  and  _79
REMARK   34  A    between atoms: _79  and  _80
REMARK   35  A    between atoms: _83  and  _85
REMARK   36  A    between atoms: _85  and  _86
REMARK   37  A    between atoms: _85  and  _88
REMARK   38  A    between atoms: _88  and  _89
REMARK   39  A    between atoms: _92  and  _94
REMARK   40  A    between atoms: _94  and  _95
REMARK   41  A    between atoms: _94  and  _97
REMARK   42  A    between atoms: _100  and  _102
REMARK   43  A    between atoms: _102  and  _103
REMARK   44  A    between atoms: _102  and  _105
REMARK   45  A    between atoms: _105  and  _106
REMARK   46  A    between atoms: _109  and  _111
REMARK   47  A    between atoms: _111  and  _112
REMARK   48  A    between atoms: _111  and  _114
REMARK   49  A    between atoms: _114  and  _115
REMARK   50  A    between atoms: _115  and  _116
REMARK   51  A    between atoms: _116  and  _117
REMARK   52  A    between atoms: _117  and  _118
REMARK   53  A    between atoms: _122  and  _124
REMARK   54  A    between atoms: _124  and  _125
REMARK   55  A    between atoms: _124  and  _127
REMARK   56  A    between atoms: _127  and  _128
REMARK   57  A    between atoms: _128  and  _129
REMARK   58  A    between atoms: _131  and  _133
REMARK   59  A    between atoms: _133  and  _134
REMARK   60  A    between atoms: _133  and  _136
REMARK   61  A    between atoms: _136  and  _137
REMARK   62  A    between atoms: _140  and  _142
REMARK   63  A    between atoms: _142  and  _143
REMARK   64  A    between atoms: _145  and  _147
REMARK   65  A    between atoms: _147  and  _148
REMARK   66  A    between atoms: _150  and  _152
REMARK   67  A    between atoms: _152  and  _153
REMARK   68  A    between atoms: _152  and  _155
REMARK   69  A    between atoms: _155  and  _156
REMARK   70  A    between atoms: _159  and  _161
REMARK   71  A    between atoms: _161  and  _162
REMARK   72  A    between atoms: _164  and  _166
REMARK   73  A    between atoms: _166  and  _167
REMARK   74  A    between atoms: _169  and  _171
REMARK   75  A    between atoms: _171  and  _172
REMARK   76  A    between atoms: _171  and  _174
REMARK   77  A    between atoms: _174  and  _175
REMARK   78  A    between atoms: _181  and  _183
REMARK   79  A    between atoms: _183  and  _184
REMARK   80  A    between atoms: _183  and  _186
REMARK   81  A    between atoms: _186  and  _187
REMARK   82  A    between atoms: _190  and  _192
REMARK   83  A    between atoms: _192  and  _193
REMARK   84  A    between atoms: _192  and  _195
REMARK   85  A    between atoms: _198  and  _200
REMARK   86  A    between atoms: _200  and  _201
REMARK   87  A    between atoms: _200  and  _203
REMARK   88  A    between atoms: _203  and  _204
REMARK   89  A    between atoms: _204  and  _205
REMARK   90  A    between atoms: _210  and  _212
REMARK   91  A    between atoms: _212  and  _213
REMARK   92  A    between atoms: _212  and  _215
REMARK   93  A    between atoms: _215  and  _216
REMARK   94  A    between atoms: _220  and  _221
REMARK   95  A    between atoms: _226  and  _228
REMARK   96  A    between atoms: _228  and  _229
REMARK   97  A    between atoms: _228  and  _231
REMARK   98  A    between atoms: _231  and  _232
REMARK   99  A    between atoms: _236  and  _237
REMARK  100  A    between atoms: _242  and  _244
REMARK  101  A    between atoms: _244  and  _245
REMARK  102  A    between atoms: _244  and  _247
REMARK  103  A    between atoms: _247  and  _248
REMARK  104  A    between atoms: _254  and  _256
REMARK  105  A    between atoms: _256  and  _257
REMARK  106  A    between atoms: _256  and  _259
REMARK  107  A    between atoms: _259  and  _260
REMARK  108  A    between atoms: _265  and  _267
REMARK  109  A    between atoms: _267  and  _268
REMARK  110  A    between atoms: _267  and  _270
REMARK  111  A    between atoms: _273  and  _275
REMARK  112  A    between atoms: _275  and  _276
REMARK  113  A    between atoms: _275  and  _278
REMARK  114  A    between atoms: _278  and  _279
REMARK  115  A    between atoms: _282  and  _284
REMARK  116  A    between atoms: _284  and  _285
REMARK  117  A    between atoms: _287  and  _289
REMARK  118  A    between atoms: _289  and  _290
REMARK  119  A    between atoms: _289  and  _292
REMARK  120  A    between atoms: _292  and  _293
REMARK  121  A    between atoms: _293  and  _294
REMARK  122  A    between atoms: _294  and  _295
REMARK  123  A    between atoms: _304  and  _306
REMARK  124  A    between atoms: _306  and  _307
REMARK  125  A    between atoms: _306  and  _309
REMARK  126  A    between atoms: _309  and  _310
REMARK  127  A    between atoms: _315  and  _317
REMARK  128  A    between atoms: _317  and  _318
REMARK  129  A    between atoms: _317  and  _320
REMARK  130  A    between atoms: _320  and  _321
REMARK  131  A    between atoms: _321  and  _322
REMARK  132  A    between atoms: _322  and  _323
REMARK  133  A    between atoms: _332  and  _334
REMARK  134  A    between atoms: _334  and  _335
REMARK  135  A    between atoms: _334  and  _337
REMARK  136  A    between atoms: _337  and  _338
REMARK  137  A    between atoms: _341  and  _343
REMARK  138  A    between atoms: _343  and  _344
REMARK  139  A    between atoms: _343  and  _346
REMARK  140  A    between atoms: _346  and  _347
REMARK  141  A    between atoms: _350  and  _352
REMARK  142  A    between atoms: _352  and  _353
REMARK  143  A    between atoms: _352  and  _355
REMARK  144  A    between atoms: _355  and  _356
REMARK  145  A    between atoms: _359  and  _361
REMARK  146  A    between atoms: _361  and  _362
REMARK  147  A    between atoms: _361  and  _364
REMARK  148  A    between atoms: _364  and  _365
REMARK  149  A    between atoms: _368  and  _370
REMARK  150  A    between atoms: _370  and  _371
REMARK  151  A    between atoms: _373  and  _375
REMARK  152  A    between atoms: _375  and  _376
REMARK  153  A    between atoms: _379  and  _381
REMARK  154  A    between atoms: _381  and  _382
REMARK  155  A    between atoms: _381  and  _384
REMARK  156  A    between atoms: _384  and  _385
REMARK  157  A    between atoms: _388  and  _390
REMARK  158  A    between atoms: _390  and  _391
REMARK  159  A    between atoms: _390  and  _393
REMARK  160  A    between atoms: _393  and  _394
REMARK  161  A    between atoms: _397  and  _399
REMARK  162  A    between atoms: _399  and  _400
REMARK  163  A    between atoms: _399  and  _402
REMARK  164  A    between atoms: _402  and  _403
REMARK  165  A    between atoms: _406  and  _408
REMARK  166  A    between atoms: _408  and  _409
REMARK  167  A    between atoms: _408  and  _411
REMARK  168  A    between atoms: _414  and  _416
REMARK  169  A    between atoms: _416  and  _417
REMARK  170  A    between atoms: _416  and  _419
REMARK  171  A    between atoms: _419  and  _420
REMARK  172  A    between atoms: _423  and  _425
REMARK  173  A    between atoms: _425  and  _426
REMARK  174  A    between atoms: _425  and  _428
REMARK  175  A    between atoms: _428  and  _429
REMARK  176  A    between atoms: _429  and  _430
REMARK  177  A    between atoms: _430  and  _431
REMARK  178  A    between atoms: _431  and  _432
REMARK  179  A    between atoms: _436  and  _438
REMARK  180  A    between atoms: _438  and  _439
REMARK  181  A    between atoms: _438  and  _441
REMARK  182  A    between atoms: _441  and  _442
REMARK  183  A    between atoms: _442  and  _443
REMARK  184  A    between atoms: _445  and  _447
REMARK  185  A    between atoms: _447  and  _448
REMARK  186  A    between atoms: _447  and  _450
REMARK  187  A    between atoms: _450  and  _451
REMARK  188  A    between atoms: _454  and  _456
REMARK  189  A    between atoms: _456  and  _457
REMARK  190  A    between atoms: _459  and  _461
REMARK  191  A    between atoms: _461  and  _462
REMARK  192  A    between atoms: _464  and  _466
REMARK  193  A    between atoms: _466  and  _467
REMARK  194  A    between atoms: _466  and  _469
REMARK  195  A    between atoms: _469  and  _470
REMARK  196  A    between atoms: _473  and  _475
REMARK  197  A    between atoms: _475  and  _476
REMARK  198  A    between atoms: _478  and  _480
REMARK  199  A    between atoms: _480  and  _481
REMARK  200  A    between atoms: _483  and  _485
REMARK  201  A    between atoms: _485  and  _486
REMARK  202  A    between atoms: _485  and  _488
REMARK  203  A    between atoms: _488  and  _489
REMARK  204  A    between atoms: _495  and  _497
REMARK  205  A    between atoms: _497  and  _498
REMARK  206  A    between atoms: _497  and  _500
REMARK  207  A    between atoms: _500  and  _501
REMARK  208  A    between atoms: _504  and  _506
REMARK  209  A    between atoms: _506  and  _507
REMARK  210  A    between atoms: _506  and  _509
REMARK  211  A    between atoms: _509  and  _510
REMARK  212  A    between atoms: _510  and  _511
REMARK  213  A    between atoms: _516  and  _518
REMARK  214  A    between atoms: _518  and  _519
REMARK  215  A    between atoms: _518  and  _521
REMARK  216  A    between atoms: _521  and  _522
REMARK  217  A    between atoms: _526  and  _527
REMARK  218  A    between atoms: _532  and  _534
REMARK  219  A    between atoms: _534  and  _535
REMARK  220  A    between atoms: _534  and  _537
REMARK  221  A    between atoms: _537  and  _538
REMARK  222  A    between atoms: _542  and  _543
REMARK  223  A    between atoms: _548  and  _550
REMARK  224  A    between atoms: _550  and  _551
REMARK  225  A    between atoms: _550  and  _553
REMARK  226  A    between atoms: _553  and  _554
REMARK  227  A    between atoms: _560  and  _562
REMARK  228  A    between atoms: _562  and  _563
REMARK  229  A    between atoms: _562  and  _565
REMARK  230  A    between atoms: _565  and  _566
REMARK  231  A    between atoms: _571  and  _573
REMARK  232  A    between atoms: _573  and  _574
REMARK  233  A    between atoms: _573  and  _576
REMARK  234  A    between atoms: _579  and  _581
REMARK  235  A    between atoms: _581  and  _582
REMARK  236  A    between atoms: _581  and  _584
REMARK  237  A    between atoms: _584  and  _585
REMARK  238  A    between atoms: _588  and  _590
REMARK  239  A    between atoms: _590  and  _591
REMARK  240  A    between atoms: _593  and  _595
REMARK  241  A    between atoms: _595  and  _596
REMARK  242  A    between atoms: _595  and  _598
REMARK  243  A    between atoms: _598  and  _599
REMARK  244  A    between atoms: _599  and  _600
REMARK  245  A    between atoms: _600  and  _601
REMARK  246  A    between atoms: _610  and  _612
REMARK  247  A    between atoms: _612  and  _613
REMARK  248  A    between atoms: _612  and  _615
REMARK  249  A    between atoms: _615  and  _616
REMARK                            x       y       z     vdW  Elec       q    Type
REMARK                         _______ _______ _______ _____ _____    ______ ____
ROOT
ATOM      1  NE  ARG A   1     -19.449  15.598  33.734  0.00  0.00    -0.265 N 
ATOM      2  HE  ARG A   1     -19.552  15.739  34.759  0.00  0.00    +0.259 HD
ATOM      3  CZ  ARG A   1     -18.732  14.577  33.269  0.00  0.00    +0.342 C 
ATOM      4  NH2 ARG A   1     -18.316  13.677  34.158  0.00  0.00    -0.292 N 
ATOM      5 HH21 ARG A   1     -18.555  13.791  35.164  0.00  0.00    +0.255 HD
ATOM      6 HH22 ARG A   1     -17.753  12.860  33.846  0.00  0.00    +0.255 HD
ATOM      7  NH1 ARG A   1     -18.432  14.443  31.963  0.00  0.00    -0.292 N 
ATOM      8 HH11 ARG A   1     -17.869  13.631  31.639  0.00  0.00    +0.255 HD
ATOM      9 HH12 ARG A   1     -18.763  15.152  31.278  0.00  0.00    +0.255 HD
ENDROOT
BRANCH   1  10
ATOM     10  CD  ARG A   1     -20.086  16.513  32.807  0.00  0.00    +0.174 C 
BRANCH  10  11
ATOM     11  CG  ARG A   1     -20.406  17.819  33.503  0.00  0.00    +0.045 C 
BRANCH  11  12
ATOM     12  CB  ARG A   1     -21.257  18.637  32.561  0.00  0.00    +0.029 C 
BRANCH  12  13
ATOM     13  CA  ARG A   1     -21.286  20.112  32.918  0.00  0.00    +0.133 C 
BRANCH  13  14
ATOM     14  N   ARG A   1     -21.833  20.297  34.274  0.00  0.00    -0.239 NA
ATOM     15  H   ARG A   1     -22.059  19.473  34.867  0.00  0.00    +0.142 HD
ENDBRANCH  13  14
BRANCH  13  16
ATOM     16  C   ARG A   1     -22.114  20.757  31.821  0.00  0.00    +0.224 C 
ATOM     17  O   ARG A   1     -23.314  20.530  31.763  0.00  0.00    -0.287 OA
ENDBRANCH  13  16
ENDBRANCH  12  13
ENDBRANCH  11  12
ENDBRANCH  10  11
ENDBRANCH   1  10
TORSDOF 6
REMARK  Name = ../refined-set-2016/1bwb/1bwb_pocket.pdb
REMARK  249 active torsions:
REMARK  status: ('A' for Active; 'I' for Inactive)
REMARK    1  A    between atoms: _1  and  _3
REMARK    2  A    between atoms: _3  and  _4
REMARK    3  A    between atoms: _3  and  _6
REMARK    4  A    between atoms: _6  and  _7
REMARK    5  A    between atoms: _7  and  _8
REMARK    6  A    between atoms: _8  and  _9
REMARK    7  A    between atoms: _18  and  _20
REMARK    8  A    between atoms: _20  and  _21
REMARK    9  A    between atoms: _20  and  _23
REMARK   10  A    between atoms: _23  and  _24
REMARK   11  A    between atoms: _27  and  _29
REMARK   12  A    between atoms: _29  and  _30
REMARK   13  A    between atoms: _29  and  _32
REMARK   14  A    between atoms: _32  and  _33
REMARK   15  A    between atoms: _36  and  _38
REMARK   16  A    between atoms: _38  and  _39
REMARK   17  A    between atoms: _38  and  _41
REMARK   18  A    between atoms: _41  and  _42
REMARK   19  A    between atoms: _45  and  _47
REMARK   20  A    between atoms: _47  and  _48
REMARK   21  A    between atoms: _47  and  _50
REMARK   22  A    between atoms: _50  and  _51
REMARK   23  A    between atoms: _54  and  _56
REMARK   24  A    between atoms: _56  and  _57
REMARK   25  A    between atoms: _59  and  _61
REMARK   26  A    between atoms: _61  and  _62
REMARK   27  A    between atoms: _65  and  _67
REMARK   28  A    between atoms: _67  and  _68
REMARK   29  A    between atoms: _67  and  _70
REMARK   30  A    between atoms: _70  and  _71
REMARK   31  A    between atoms: _74  and  _76
REMARK   32  A    between atoms: _76  and  _77
REMARK   33  A    between atoms: _76  and  _79
REMARK   34  A    between atoms: _79  and  _80
REMARK   35  A    between atoms: _83  and  _85
REMARK   36  A    between atoms: _85  and  _86
REMARK   37  A    between atoms: _85  and  _88
REMARK   38  A    between atoms: _88  and  _89
REMARK   39  A    between atoms: _92  and  _94
REMARK   40  A    between atoms: _94  and  _95
REMARK   41  A    between atoms: _94  and  _97
REMARK   42  A    between atoms: _100  and  _102
REMARK   43  A    between atoms: _102  and  _103
REMARK   44  A    between atoms: _102  and  _105
REMARK   45  A    between atoms: _105  and  _106
REMARK   46  A    between atoms: _109  and  _111
REMARK   47  A    between atoms: _111  and  _112
REMARK   48  A    between atoms: _111  and  _114
REMARK   49  A    between atoms: _114  and  _115
REMARK   50  A    between atoms: _115  and  _116
REMARK   51  A    between atoms: _116  and  _117
REMARK   52  A    between atoms: _117  and  _118
REMARK   53  A    between atoms: _122  and  _124
REMARK   54  A    between atoms: _124  and  _125
REMARK   55  A    between atoms: _124  and  _127
REMARK   56  A    between atoms: _127  and  _128
REMARK   57  A    between atoms: _128  and  _129
REMARK   58  A    between atoms: _131  and  _133
REMARK   59  A    between atoms: _133  and  _134
REMARK   60  A    between atoms: _133  and  _136
REMARK   61  A    between atoms: _136  and  _137
REMARK   62  A    between atoms: _140  and  _142
REMARK   63  A    between atoms: _142  and  _143
REMARK   64  A    between atoms: _145  and  _147
REMARK   65  A    between atoms: _147  and  _148
REMARK   66  A    between atoms: _150  and  _152
REMARK   67  A    between atoms: _152  and  _153
REMARK   68  A    between atoms: _152  and  _155
REMARK   69  A    between atoms: _155  and  _156
REMARK   70  A    between atoms: _159  and  _161
REMARK   71  A    between atoms: _161  and  _162
REMARK   72  A    between atoms: _164  and  _166
REMARK   73  A    between atoms: _166  and  _167
REMARK   74  A    between atoms: _169  and  _171
REMARK   75  A    between atoms: _171  and  _172
REMARK   76  A    between atoms: _171  and  _174
REMARK   77  A    between atoms: _174  and  _175
REMARK   78  A    between atoms: _181  and  _183
REMARK   79  A    between atoms: _183  and  _184
REMARK   80  A    between atoms: _183  and  _186
REMARK   81  A    between atoms: _186  and  _187
REMARK   82  A    between atoms: _190  and  _192
REMARK   83  A    between atoms: _192  and  _193
REMARK   84  A    between atoms: _192  and  _195
REMARK   85  A    between atoms: _198  and  _200
REMARK   86  A    between atoms: _200  and  _201
REMARK   87  A    between atoms: _200  and  _203
REMARK   88  A    between atoms: _203  and  _204
REMARK   89  A    between atoms: _204  and  _205
REMARK   90  A    between atoms: _210  and  _212
REMARK   91  A    between atoms: _212  and  _213
REMARK   92  A    between atoms: _212  and  _215
REMARK   93  A    between atoms: _215  and  _216
REMARK   94  A    between atoms: _220  and  _221
REMARK   95  A    between atoms: _226  and  _228
REMARK   96  A    between atoms: _228  and  _229
REMARK   97  A    between atoms: _228  and  _231
REMARK   98  A    between atoms: _231  and  _232
REMARK   99  A    between atoms: _236  and  _237
REMARK  100  A    between atoms: _242  and  _244
REMARK  101  A    between atoms: _244  and  _245
REMARK  102  A    between atoms: _244  and  _247
REMARK  103  A    between atoms: _247  and  _248
REMARK  104  A    between atoms: _254  and  _256
REMARK  105  A    between atoms: _256  and  _257
REMARK  106  A    between atoms: _256  and  _259
REMARK  107  A    between atoms: _259  and  _260
REMARK  108  A    between atoms: _265  and  _267
REMARK  109  A    between atoms: _267  and  _268
REMARK  110  A    between atoms: _267  and  _270
REMARK  111  A    between atoms: _273  and  _275
REMARK  112  A    between atoms: _275  and  _276
REMARK  113  A    between atoms: _275  and  _278
REMARK  114  A    between atoms: _278  and  _279
REMARK  115  A    between atoms: _282  and  _284
REMARK  116  A    between atoms: _284  and  _285
REMARK  117  A    between atoms: _287  and  _289
REMARK  118  A    between atoms: _289  and  _290
REMARK  119  A    between atoms: _289  and  _292
REMARK  120  A    between atoms: _292  and  _293
REMARK  121  A    between atoms: _293  and  _294
REMARK  122  A    between atoms: _294  and  _295
REMARK  123  A    between atoms: _304  and  _306
REMARK  124  A    between atoms: _306  and  _307
REMARK  125  A    between atoms: _306  and  _309
REMARK  126  A    between atoms: _309  and  _310
REMARK  127  A    between atoms: _315  and  _317
REMARK  128  A    between atoms: _317  and  _318
REMARK  129  A    between atoms: _317  and  _320
REMARK  130  A    between atoms: _320  and  _321
REMARK  131  A    between atoms: _321  and  _322
REMARK  132  A    between atoms: _322  and  _323
REMARK  133  A    between atoms: _332  and  _334
REMARK  134  A    between atoms: _334  and  _335
REMARK  135  A    between atoms: _334  and  _337
REMARK  136  A    between atoms: _337  and  _338
REMARK  137  A    between atoms: _341  and  _343
REMARK  138  A    between atoms: _343  and  _344
REMARK  139  A    between atoms: _343  and  _346
REMARK  140  A    between atoms: _346  and  _347
REMARK  141  A    between atoms: _350  and  _352
REMARK  142  A    between atoms: _352  and  _353
REMARK  143  A    between atoms: _352  and  _355
REMARK  144  A    between atoms: _355  and  _356
REMARK  145  A    between atoms: _359  and  _361
REMARK  146  A    between atoms: _361  and  _362
REMARK  147  A    between atoms: _361  and  _364
REMARK  148  A    between atoms: _364  and  _365
REMARK  149  A    between atoms: _368  and  _370
REMARK  150  A    between atoms: _370  and  _371
REMARK  151  A    between atoms: _373  and  _375
REMARK  152  A    between atoms: _375  and  _376
REMARK  153  A    between atoms: _379  and  _381
REMARK  154  A    between atoms: _381  and  _382
REMARK  155  A    between atoms: _381  and  _384
REMARK  156  A    between atoms: _384  and  _385
REMARK  157  A    between atoms: _388  and  _390
REMARK  158  A    between atoms: _390  and  _391
REMARK  159  A    between atoms: _390  and  _393
REMARK  160  A    between atoms: _393  and  _394
REMARK  161  A    between atoms: _397  and  _399
REMARK  162  A    between atoms: _399  and  _400
REMARK  163  A    between atoms: _399  and  _402
REMARK  164  A    between atoms: _402  and  _403
REMARK  165  A    between atoms: _406  and  _408
REMARK  166  A    between atoms: _408  and  _409
REMARK  167  A    between atoms: _408  and  _411
REMARK  168  A    between atoms: _414  and  _416
REMARK  169  A    between atoms: _416  and  _417
REMARK  170  A    between atoms: _416  and  _419
REMARK  171  A    between atoms: _419  and  _420
REMARK  172  A    between atoms: _423  and  _425
REMARK  173  A    between atoms: _425  and  _426
REMARK  174  A    between atoms: _425  and  _428
REMARK  175  A    between atoms: _428  and  _429
REMARK  176  A    between atoms: _429  and  _430
REMARK  177  A    between atoms: _430  and  _431
REMARK  178  A    between atoms: _431  and  _432
REMARK  179  A    between atoms: _436  and  _438
REMARK  180  A    between atoms: _438  and  _439
REMARK  181  A    between atoms: _438  and  _441
REMARK  182  A    between atoms: _441  and  _442
REMARK  183  A    between atoms: _442  and  _443
REMARK  184  A    between atoms: _445  and  _447
REMARK  185  A    between atoms: _447  and  _448
REMARK  186  A    between atoms: _447  and  _450
REMARK  187  A    between atoms: _450  and  _451
REMARK  188  A    between atoms: _454  and  _456
REMARK  189  A    between atoms: _456  and  _457
REMARK  190  A    between atoms: _459  and  _461
REMARK  191  A    between atoms: _461  and  _462
REMARK  192  A    between atoms: _464  and  _466
REMARK  193  A    between atoms: _466  and  _467
REMARK  194  A    between atoms: _466  and  _469
REMARK  195  A    between atoms: _469  and  _470
REMARK  196  A    between atoms: _473  and  _475
REMARK  197  A    between atoms: _475  and  _476
REMARK  198  A    between atoms: _478  and  _480
REMARK  199  A    between atoms: _480  and  _481
REMARK  200  A    between atoms: _483  and  _485
REMARK  201  A    between atoms: _485  and  _486
REMARK  202  A    between atoms: _485  and  _488
REMARK  203  A    between atoms: _488  and  _489
REMARK  204  A    between atoms: _495  and  _497
REMARK  205  A    between atoms: _497  and  _498
REMARK  206  A    between atoms: _497  and  _500
REMARK  207  A    between atoms: _500  and  _501
REMARK  208  A    between atoms: _504  and  _506
REMARK  209  A    between atoms: _506  and  _507
REMARK  210  A    between atoms: _506  and  _509
REMARK  211  A    between atoms: _509  and  _510
REMARK  212  A    between atoms: _510  and  _511
REMARK  213  A    between atoms: _516  and  _518
REMARK  214  A    between atoms: _518  and  _519
REMARK  215  A    between atoms: _518  and  _521
REMARK  216  A    between atoms: _521  and  _522
REMARK  217  A    between atoms: _526  and  _527
REMARK  218  A    between atoms: _532  and  _534
REMARK  219  A    between atoms: _534  and  _535
REMARK  220  A    between atoms: _534  and  _537
REMARK  221  A    between atoms: _537  and  _538
REMARK  222  A    between atoms: _542  and  _543
REMARK  223  A    between atoms: _548  and  _550
REMARK  224  A    between atoms: _550  and  _551
REMARK  225  A    between atoms: _550  and  _553
REMARK  226  A    between atoms: _553  and  _554
REMARK  227  A    between atoms: _560  and  _562
REMARK  228  A    between atoms: _562  and  _563
REMARK  229  A    between atoms: _562  and  _565
REMARK  230  A    between atoms: _565  and  _566
REMARK  231  A    between atoms: _571  and  _573
REMARK  232  A    between atoms: _573  and  _574
REMARK  233  A    between atoms: _573  and  _576
REMARK  234  A    between atoms: _579  and  _581
REMARK  235  A    between atoms: _581  and  _582
REMARK  236  A    between atoms: _581  and  _584
REMARK  237  A    between atoms: _584  and  _585
REMARK  238  A    between atoms: _588  and  _590
REMARK  239  A    between atoms: _590  and  _591
REMARK  240  A    between atoms: _593  and  _595
REMARK  241  A    between atoms: _595  and  _596
REMARK  242  A    between atoms: _595  and  _598
REMARK  243  A    between atoms: _598  and  _599
REMARK  244  A    between atoms: _599  and  _600
REMARK  245  A    between atoms: _600  and  _601
REMARK  246  A    between atoms: _610  and  _612
REMARK  247  A    between atoms: _612  and  _613
REMARK  248  A    between atoms: _612  and  _615
REMARK  249  A    between atoms: _615  and  _616
REMARK                            x       y       z     vdW  Elec       q    Type
REMARK                         _______ _______ _______ _____ _____    ______ ____
ROOT
ATOM      1  C   ALA A   6     -10.185  21.405  21.764  0.00  0.00    +0.241 C 
ATOM      2  O   ALA A   6     -10.997  22.217  21.363  0.00  0.00    -0.273 OA
ATOM      3  N   ASP A   7      -9.132  21.067  21.048  0.00  0.00    -0.297 N 
ATOM      4  H   ASP A   7      -8.427  20.376  21.376  0.00  0.00    +0.150 HD
ENDROOT
BRANCH   1   5
ATOM      5  CA  ALA A   6     -10.355  20.716  23.093  0.00  0.00    +0.149 C 
ATOM      6  CB  ALA A   6     -11.619  19.804  23.004  0.00  0.00    +0.031 C 
BRANCH   5   9
ATOM      7  C   GLY A   5      -9.563  22.180  24.896  0.00  0.00    +0.243 C 
ATOM      8  O   GLY A   5      -8.409  21.881  24.700  0.00  0.00    -0.273 OA
ATOM      9  N   ALA A   6     -10.545  21.738  24.118  0.00  0.00    -0.297 N 
ATOM     10  H   ALA A   6     -11.496  22.140  24.245  0.00  0.00    +0.150 HD
BRANCH   7  11
ATOM     11  CA  GLY A   5      -9.963  23.025  26.098  0.00  0.00    +0.176 C 
BRANCH  11  13
ATOM     12  C   THR A   4     -11.667  24.530  25.384  0.00  0.00    +0.243 C 
ATOM     13  N   GLY A   5     -11.355  23.453  26.105  0.00  0.00    -0.295 N 
ATOM     14  H   GLY A   5     -12.076  22.939  26.650  0.00  0.00    +0.150 HD
ATOM     15  O   THR A   4     -10.826  25.167  24.771  0.00  0.00    -0.273 OA
BRANCH  12  16
ATOM     16  CA  THR A   4     -13.137  24.929  25.394  0.00  0.00    +0.176 C 
BRANCH  16  18
ATOM     17  C   ASP A   3     -14.346  22.858  25.148  0.00  0.00    +0.241 C 
ATOM     18  N   THR A   4     -14.089  23.921  25.902  0.00  0.00    -0.295 N 
ATOM     19  H   THR A   4     -14.547  24.040  26.828  0.00  0.00    +0.150 HD
ATOM     20  O   ASP A   3     -13.765  22.668  24.100  0.00  0.00    -0.273 OA
BRANCH  17  21
ATOM     21  CA  ASP A   3     -15.349  21.870  25.692  0.00  0.00    +0.160 C 
BRANCH  21  24
ATOM     22  C   LEU A   2     -17.745  22.257  25.847  0.00  0.00    +0.241 C 
ATOM     23  O   LEU A   2     -17.692  22.572  27.036  0.00  0.00    -0.273 OA
ATOM     24  N   ASP A   3     -16.663  22.049  25.090  0.00  0.00    -0.297 N 
ATOM     25  H   ASP A   3     -16.761  22.014  24.055  0.00  0.00    +0.150 HD
BRANCH  22  26
ATOM     26  CA  LEU A   2     -19.090  22.063  25.162  0.00  0.00    +0.149 C 
BRANCH  26  28
ATOM     27  C   LEU A   1     -19.436  19.695  25.371  0.00  0.00    +0.238 C 
ATOM     28  N   LEU A   2     -19.784  20.910  25.741  0.00  0.00    -0.297 N 
ATOM     29  H   LEU A   2     -20.544  21.050  26.437  0.00  0.00    +0.150 HD
ATOM     30  O   LEU A   1     -18.671  19.456  24.435  0.00  0.00    -0.274 OA
BRANCH  27  31
ATOM     31  CA  LEU A   1     -19.974  18.594  26.259  0.00  0.00    +0.145 C 
BRANCH  31  32
ATOM     32  N   LEU A   1     -20.493  17.514  25.422  0.00  0.00    -0.238 NA
ATOM     33  H   LEU A   1     -19.873  16.721  25.161  0.00  0.00    +0.142 HD
ENDBRANCH  31  32
BRANCH  31  34
ATOM     34  CB  LEU A   1     -18.715  18.163  27.010  0.00  0.00    +0.026 C 
BRANCH  34  35
ATOM     35  CG  LEU A   1     -18.738  17.487  28.384  0.00  0.00    +0.002 C 
ATOM     36  CD2 LEU A   1     -19.195  18.419  29.486  0.00  0.00    +0.000 C 
ATOM     37  CD1 LEU A   1     -17.311  17.033  28.694  0.00  0.00    +0.000 C 
ENDBRANCH  34  35
ENDBRANCH  31  34
ENDBRANCH  27  31
ENDBRANCH  26  28
BRANCH  26  38
ATOM     38  CB  LEU A   2     -19.893  23.315  25.470  0.00  0.00    +0.029 C 
BRANCH  38  39
ATOM     39  CG  LEU A   2     -20.999  23.795  24.529  0.00  0.00    +0.002 C 
ATOM     40  CD2 LEU A   2     -22.206  24.196  25.360  0.00  0.00    +0.000 C 
ATOM     41  CD1 LEU A   2     -21.302  22.840  23.376  0.00  0.00    +0.000 C 
ENDBRANCH  38  39
ENDBRANCH  26  38
ENDBRANCH  22  26
ENDBRANCH  21  24
BRANCH  21  42
ATOM     42  CB  ASP A   3     -14.950  20.434  25.373  0.00  0.00    +0.143 C 
BRANCH  42  43
ATOM     43  CG  ASP A   3     -13.696  19.949  26.073  0.00  0.00    +0.367 C 
ATOM     44  OD2 ASP A   3     -12.941  20.739  26.649  0.00  0.00    -0.246 OA
ATOM     45  OD1 ASP A   3     -13.470  18.751  26.034  0.00  0.00    -0.246 OA
ENDBRANCH  42  43
ENDBRANCH  21  42
ENDBRANCH  17  21
ENDBRANCH  16  18
BRANCH  16  46
ATOM     46  CB  THR A   4     -13.292  26.235  26.181  0.00  0.00    +0.137 C 
ATOM     47  CG2 THR A   4     -14.699  26.841  26.074  0.00  0.00    +0.034 C 
BRANCH  46  48
ATOM     48  OG1 THR A   4     -12.987  25.982  27.565  0.00  0.00    -0.382 OA
ATOM     49  HG1 THR A   4     -12.057  25.652  27.642  0.00  0.00    +0.210 HD
ENDBRANCH  46  48
ENDBRANCH  16  46
ENDBRANCH  12  16
ENDBRANCH  11  13
ENDBRANCH   7  11
ENDBRANCH   5   9
ENDBRANCH   1   5
BRANCH   3  50
ATOM     50  CA  ASP A   7      -9.036  21.742  19.755  0.00  0.00    +0.160 C 
BRANCH  50  51
ATOM     51  C   ASP A   7     -10.004  21.231  18.716  0.00  0.00    +0.241 C 
ATOM     52  N   ASP A   8     -10.263  19.948  18.826  0.00  0.00    -0.297 N 
ATOM     53  H   ASP A   8      -9.891  19.441  19.654  0.00  0.00    +0.150 HD
ATOM     54  O   ASP A   7     -10.485  21.957  17.870  0.00  0.00    -0.273 OA
BRANCH  52  55
ATOM     55  CA  ASP A   8     -11.043  19.196  17.852  0.00  0.00    +0.160 C 
BRANCH  55  56
ATOM     56  C   ASP A   8     -12.271  18.581  18.511  0.00  0.00    +0.241 C 
ATOM     57  O   ASP A   8     -12.308  18.427  19.723  0.00  0.00    -0.273 OA
ATOM     58  N   THR A   9     -13.251  18.217  17.682  0.00  0.00    -0.295 N 
ATOM     59  H   THR A   9     -13.141  18.407  16.665  0.00  0.00    +0.150 HD
BRANCH  58  60
ATOM     60  CA  THR A   9     -14.473  17.562  18.144  0.00  0.00    +0.176 C 
BRANCH  60  61
ATOM     61  C   THR A   9     -14.265  16.082  18.048  0.00  0.00    +0.243 C 
ATOM     62  N   VAL A  10     -14.614  15.417  19.121  0.00  0.00    -0.297 N 
ATOM     63  H   VAL A  10     -14.960  15.906  19.971  0.00  0.00    +0.150 HD
ATOM     64  O   THR A   9     -13.777  15.556  17.054  0.00  0.00    -0.273 OA
BRANCH  62  65
ATOM     65  CA  VAL A  10     -14.499  13.968  19.077  0.00  0.00    +0.149 C 
BRANCH  65  66
ATOM     66  C   VAL A  10     -15.682  13.266  19.734  0.00  0.00    +0.241 C 
ATOM     67  O   VAL A  10     -16.198  13.610  20.789  0.00  0.00    -0.273 OA
ATOM     68  N   LEU A  11     -16.158  12.302  18.977  0.00  0.00    -0.298 N 
ATOM     69  H   LEU A  11     -15.609  11.991  18.150  0.00  0.00    +0.150 HD
BRANCH  68  70
ATOM     70  CA  LEU A  11     -17.414  11.667  19.259  0.00  0.00    +0.137 C 
BRANCH  70  71
ATOM     71  C   LEU A  11     -17.160  10.211  19.437  0.00  0.00    +0.227 C 
ATOM     72  O   LEU A  11     -16.241   9.621  18.879  0.00  0.00    -0.286 OA
ENDBRANCH  70  71
BRANCH  70  73
ATOM     73  CB  LEU A  11     -18.331  11.883  18.052  0.00  0.00    +0.028 C 
BRANCH  73  74
ATOM     74  CG  LEU A  11     -18.670  13.336  17.693  0.00  0.00    +0.002 C 
ATOM     75  CD2 LEU A  11     -19.252  14.098  18.875  0.00  0.00    +0.000 C 
ATOM     76  CD1 LEU A  11     -19.703  13.316  16.586  0.00  0.00    +0.000 C 
ENDBRANCH  73  74
ENDBRANCH  70  73
ENDBRANCH  68  70
ENDBRANCH  65  66
BRANCH  65  77
ATOM     77  CB  VAL A  10     -13.080  13.458  19.507  0.00  0.00    +0.027 C 
ATOM     78  CG2 VAL A  10     -12.213  14.456  20.261  0.00  0.00    +0.002 C 
ATOM     79  CG1 VAL A  10     -13.074  12.075  20.153  0.00  0.00    +0.002 C 
ENDBRANCH  65  77
ENDBRANCH  62  65
ENDBRANCH  60  61
BRANCH  60  80
ATOM     80  CB  THR A   9     -15.629  18.069  17.249  0.00  0.00    +0.137 C 
ATOM     81  CG2 THR A   9     -16.984  17.408  17.482  0.00  0.00    +0.034 C 
BRANCH  80  82
ATOM     82  OG1 THR A   9     -15.758  19.487  17.464  0.00  0.00    -0.382 OA
ATOM     83  HG1 THR A   9     -14.910  19.935  17.219  0.00  0.00    +0.210 HD
ENDBRANCH  80  82
ENDBRANCH  60  80
ENDBRANCH  58  60
ENDBRANCH  55  56
BRANCH  55  84
ATOM     84  CB  ASP A   8     -10.219  18.018  17.366  0.00  0.00    +0.143 C 
BRANCH  84  85
ATOM     85  CG  ASP A   8      -8.986  18.454  16.625  0.00  0.00    +0.367 C 
ATOM     86  OD2 ASP A   8      -7.912  17.964  16.963  0.00  0.00    -0.246 OA
ATOM     87  OD1 ASP A   8      -9.093  19.275  15.715  0.00  0.00    -0.246 OA
ENDBRANCH  84  85
ENDBRANCH  55  84
ENDBRANCH  52  55
ENDBRANCH  50  51
BRANCH  50  88
ATOM     88  CB  ASP A   7      -7.637  21.624  19.145  0.00  0.00    +0.143 C 
BRANCH  88  89
ATOM     89  CG  ASP A   7      -6.529  22.221  19.977  0.00  0.00    +0.367 C 
ATOM     90  OD2 ASP A   7      -6.767  23.149  20.765  0.00  0.00    -0.246 OA
ATOM     91  OD1 ASP A   7      -5.404  21.733  19.809  0.00  0.00    -0.246 OA
ENDBRANCH  88  89
ENDBRANCH  50  88
ENDBRANCH   3  50
TORSDOF 39
REMARK  Name = ../refined-set-2016/1bwb/1bwb_pocket.pdb
REMARK  249 active torsions:
REMARK  status: ('A' for Active; 'I' for Inactive)
REMARK    1  A    between atoms: _1  and  _3
REMARK    2  A    between atoms: _3  and  _4
REMARK    3  A    between atoms: _3  and  _6
REMARK    4  A    between atoms: _6  and  _7
REMARK    5  A    between atoms: _7  and  _8
REMARK    6  A    between atoms: _8  and  _9
REMARK    7  A    between atoms: _18  and  _20
REMARK    8  A    between atoms: _20  and  _21
REMARK    9  A    between atoms: _20  and  _23
REMARK   10  A    between atoms: _23  and  _24
REMARK   11  A    between atoms: _27  and  _29
REMARK   12  A    between atoms: _29  and  _30
REMARK   13  A    between atoms: _29  and  _32
REMARK   14  A    between atoms: _32  and  _33
REMARK   15  A    between atoms: _36  and  _38
REMARK   16  A    between atoms: _38  and  _39
REMARK   17  A    between atoms: _38  and  _41
REMARK   18  A    between atoms: _41  and  _42
REMARK   19  A    between atoms: _45  and  _47
REMARK   20  A    between atoms: _47  and  _48
REMARK   21  A    between atoms: _47  and  _50
REMARK   22  A    between atoms: _50  and  _51
REMARK   23  A    between atoms: _54  and  _56
REMARK   24  A    between atoms: _56  and  _57
REMARK   25  A    between atoms: _59  and  _61
REMARK   26  A    between atoms: _61  and  _62
REMARK   27  A    between atoms: _65  and  _67
REMARK   28  A    between atoms: _67  and  _68
REMARK   29  A    between atoms: _67  and  _70
REMARK   30  A    between atoms: _70  and  _71
REMARK   31  A    between atoms: _74  and  _76
REMARK   32  A    between atoms: _76  and  _77
REMARK   33  A    between atoms: _76  and  _79
REMARK   34  A    between atoms: _79  and  _80
REMARK   35  A    between atoms: _83  and  _85
REMARK   36  A    between atoms: _85  and  _86
REMARK   37  A    between atoms: _85  and  _88
REMARK   38  A    between atoms: _88  and  _89
REMARK   39  A    between atoms: _92  and  _94
REMARK   40  A    between atoms: _94  and  _95
REMARK   41  A    between atoms: _94  and  _97
REMARK   42  A    between atoms: _100  and  _102
REMARK   43  A    between atoms: _102  and  _103
REMARK   44  A    between atoms: _102  and  _105
REMARK   45  A    between atoms: _105  and  _106
REMARK   46  A    between atoms: _109  and  _111
REMARK   47  A    between atoms: _111  and  _112
REMARK   48  A    between atoms: _111  and  _114
REMARK   49  A    between atoms: _114  and  _115
REMARK   50  A    between atoms: _115  and  _116
REMARK   51  A    between atoms: _116  and  _117
REMARK   52  A    between atoms: _117  and  _118
REMARK   53  A    between atoms: _122  and  _124
REMARK   54  A    between atoms: _124  and  _125
REMARK   55  A    between atoms: _124  and  _127
REMARK   56  A    between atoms: _127  and  _128
REMARK   57  A    between atoms: _128  and  _129
REMARK   58  A    between atoms: _131  and  _133
REMARK   59  A    between atoms: _133  and  _134
REMARK   60  A    between atoms: _133  and  _136
REMARK   61  A    between atoms: _136  and  _137
REMARK   62  A    between atoms: _140  and  _142
REMARK   63  A    between atoms: _142  and  _143
REMARK   64  A    between atoms: _145  and  _147
REMARK   65  A    between atoms: _147  and  _148
REMARK   66  A    between atoms: _150  and  _152
REMARK   67  A    between atoms: _152  and  _153
REMARK   68  A    between atoms: _152  and  _155
REMARK   69  A    between atoms: _155  and  _156
REMARK   70  A    between atoms: _159  and  _161
REMARK   71  A    between atoms: _161  and  _162
REMARK   72  A    between atoms: _164  and  _166
REMARK   73  A    between atoms: _166  and  _167
REMARK   74  A    between atoms: _169  and  _171
REMARK   75  A    between atoms: _171  and  _172
REMARK   76  A    between atoms: _171  and  _174
REMARK   77  A    between atoms: _174  and  _175
REMARK   78  A    between atoms: _181  and  _183
REMARK   79  A    between atoms: _183  and  _184
REMARK   80  A    between atoms: _183  and  _186
REMARK   81  A    between atoms: _186  and  _187
REMARK   82  A    between atoms: _190  and  _192
REMARK   83  A    between atoms: _192  and  _193
REMARK   84  A    between atoms: _192  and  _195
REMARK   85  A    between atoms: _198  and  _200
REMARK   86  A    between atoms: _200  and  _201
REMARK   87  A    between atoms: _200  and  _203
REMARK   88  A    between atoms: _203  and  _204
REMARK   89  A    between atoms: _204  and  _205
REMARK   90  A    between atoms: _210  and  _212
REMARK   91  A    between atoms: _212  and  _213
REMARK   92  A    between atoms: _212  and  _215
REMARK   93  A    between atoms: _215  and  _216
REMARK   94  A    between atoms: _220  and  _221
REMARK   95  A    between atoms: _226  and  _228
REMARK   96  A    between atoms: _228  and  _229
REMARK   97  A    between atoms: _228  and  _231
REMARK   98  A    between atoms: _231  and  _232
REMARK   99  A    between atoms: _236  and  _237
REMARK  100  A    between atoms: _242  and  _244
REMARK  101  A    between atoms: _244  and  _245
REMARK  102  A    between atoms: _244  and  _247
REMARK  103  A    between atoms: _247  and  _248
REMARK  104  A    between atoms: _254  and  _256
REMARK  105  A    between atoms: _256  and  _257
REMARK  106  A    between atoms: _256  and  _259
REMARK  107  A    between atoms: _259  and  _260
REMARK  108  A    between atoms: _265  and  _267
REMARK  109  A    between atoms: _267  and  _268
REMARK  110  A    between atoms: _267  and  _270
REMARK  111  A    between atoms: _273  and  _275
REMARK  112  A    between atoms: _275  and  _276
REMARK  113  A    between atoms: _275  and  _278
REMARK  114  A    between atoms: _278  and  _279
REMARK  115  A    between atoms: _282  and  _284
REMARK  116  A    between atoms: _284  and  _285
REMARK  117  A    between atoms: _287  and  _289
REMARK  118  A    between atoms: _289  and  _290
REMARK  119  A    between atoms: _289  and  _292
REMARK  120  A    between atoms: _292  and  _293
REMARK  121  A    between atoms: _293  and  _294
REMARK  122  A    between atoms: _294  and  _295
REMARK  123  A    between atoms: _304  and  _306
REMARK  124  A    between atoms: _306  and  _307
REMARK  125  A    between atoms: _306  and  _309
REMARK  126  A    between atoms: _309  and  _310
REMARK  127  A    between atoms: _315  and  _317
REMARK  128  A    between atoms: _317  and  _318
REMARK  129  A    between atoms: _317  and  _320
REMARK  130  A    between atoms: _320  and  _321
REMARK  131  A    between atoms: _321  and  _322
REMARK  132  A    between atoms: _322  and  _323
REMARK  133  A    between atoms: _332  and  _334
REMARK  134  A    between atoms: _334  and  _335
REMARK  135  A    between atoms: _334  and  _337
REMARK  136  A    between atoms: _337  and  _338
REMARK  137  A    between atoms: _341  and  _343
REMARK  138  A    between atoms: _343  and  _344
REMARK  139  A    between atoms: _343  and  _346
REMARK  140  A    between atoms: _346  and  _347
REMARK  141  A    between atoms: _350  and  _352
REMARK  142  A    between atoms: _352  and  _353
REMARK  143  A    between atoms: _352  and  _355
REMARK  144  A    between atoms: _355  and  _356
REMARK  145  A    between atoms: _359  and  _361
REMARK  146  A    between atoms: _361  and  _362
REMARK  147  A    between atoms: _361  and  _364
REMARK  148  A    between atoms: _364  and  _365
REMARK  149  A    between atoms: _368  and  _370
REMARK  150  A    between atoms: _370  and  _371
REMARK  151  A    between atoms: _373  and  _375
REMARK  152  A    between atoms: _375  and  _376
REMARK  153  A    between atoms: _379  and  _381
REMARK  154  A    between atoms: _381  and  _382
REMARK  155  A    between atoms: _381  and  _384
REMARK  156  A    between atoms: _384  and  _385
REMARK  157  A    between atoms: _388  and  _390
REMARK  158  A    between atoms: _390  and  _391
REMARK  159  A    between atoms: _390  and  _393
REMARK  160  A    between atoms: _393  and  _394
REMARK  161  A    between atoms: _397  and  _399
REMARK  162  A    between atoms: _399  and  _400
REMARK  163  A    between atoms: _399  and  _402
REMARK  164  A    between atoms: _402  and  _403
REMARK  165  A    between atoms: _406  and  _408
REMARK  166  A    between atoms: _408  and  _409
REMARK  167  A    between atoms: _408  and  _411
REMARK  168  A    between atoms: _414  and  _416
REMARK  169  A    between atoms: _416  and  _417
REMARK  170  A    between atoms: _416  and  _419
REMARK  171  A    between atoms: _419  and  _420
REMARK  172  A    between atoms: _423  and  _425
REMARK  173  A    between atoms: _425  and  _426
REMARK  174  A    between atoms: _425  and  _428
REMARK  175  A    between atoms: _428  and  _429
REMARK  176  A    between atoms: _429  and  _430
REMARK  177  A    between atoms: _430  and  _431
REMARK  178  A    between atoms: _431  and  _432
REMARK  179  A    between atoms: _436  and  _438
REMARK  180  A    between atoms: _438  and  _439
REMARK  181  A    between atoms: _438  and  _441
REMARK  182  A    between atoms: _441  and  _442
REMARK  183  A    between atoms: _442  and  _443
REMARK  184  A    between atoms: _445  and  _447
REMARK  185  A    between atoms: _447  and  _448
REMARK  186  A    between atoms: _447  and  _450
REMARK  187  A    between atoms: _450  and  _451
REMARK  188  A    between atoms: _454  and  _456
REMARK  189  A    between atoms: _456  and  _457
REMARK  190  A    between atoms: _459  and  _461
REMARK  191  A    between atoms: _461  and  _462
REMARK  192  A    between atoms: _464  and  _466
REMARK  193  A    between atoms: _466  and  _467
REMARK  194  A    between atoms: _466  and  _469
REMARK  195  A    between atoms: _469  and  _470
REMARK  196  A    between atoms: _473  and  _475
REMARK  197  A    between atoms: _475  and  _476
REMARK  198  A    between atoms: _478  and  _480
REMARK  199  A    between atoms: _480  and  _481
REMARK  200  A    between atoms: _483  and  _485
REMARK  201  A    between atoms: _485  and  _486
REMARK  202  A    between atoms: _485  and  _488
REMARK  203  A    between atoms: _488  and  _489
REMARK  204  A    between atoms: _495  and  _497
REMARK  205  A    between atoms: _497  and  _498
REMARK  206  A    between atoms: _497  and  _500
REMARK  207  A    between atoms: _500  and  _501
REMARK  208  A    between atoms: _504  and  _506
REMARK  209  A    between atoms: _506  and  _507
REMARK  210  A    between atoms: _506  and  _509
REMARK  211  A    between atoms: _509  and  _510
REMARK  212  A    between atoms: _510  and  _511
REMARK  213  A    between atoms: _516  and  _518
REMARK  214  A    between atoms: _518  and  _519
REMARK  215  A    between atoms: _518  and  _521
REMARK  216  A    between atoms: _521  and  _522
REMARK  217  A    between atoms: _526  and  _527
REMARK  218  A    between atoms: _532  and  _534
REMARK  219  A    between atoms: _534  and  _535
REMARK  220  A    between atoms: _534  and  _537
REMARK  221  A    between atoms: _537  and  _538
REMARK  222  A    between atoms: _542  and  _543
REMARK  223  A    between atoms: _548  and  _550
REMARK  224  A    between atoms: _550  and  _551
REMARK  225  A    between atoms: _550  and  _553
REMARK  226  A    between atoms: _553  and  _554
REMARK  227  A    between atoms: _560  and  _562
REMARK  228  A    between atoms: _562  and  _563
REMARK  229  A    between atoms: _562  and  _565
REMARK  230  A    between atoms: _565  and  _566
REMARK  231  A    between atoms: _571  and  _573
REMARK  232  A    between atoms: _573  and  _574
REMARK  233  A    between atoms: _573  and  _576
REMARK  234  A    between atoms: _579  and  _581
REMARK  235  A    between atoms: _581  and  _582
REMARK  236  A    between atoms: _581  and  _584
REMARK  237  A    between atoms: _584  and  _585
REMARK  238  A    between atoms: _588  and  _590
REMARK  239  A    between atoms: _590  and  _591
REMARK  240  A    between atoms: _593  and  _595
REMARK  241  A    between atoms: _595  and  _596
REMARK  242  A    between atoms: _595  and  _598
REMARK  243  A    between atoms: _598  and  _599
REMARK  244  A    between atoms: _599  and  _600
REMARK  245  A    between atoms: _600  and  _601
REMARK  246  A    between atoms: _610  and  _612
REMARK  247  A    between atoms: _612  and  _613
REMARK  248  A    between atoms: _612  and  _615
REMARK  249  A    between atoms: _615  and  _616
REMARK                            x       y       z     vdW  Elec       q    Type
REMARK                         _______ _______ _______ _____ _____    ______ ____
ROOT
ATOM      1  C   GLY A   5      -4.754  13.521  26.873  0.00  0.00    +0.243 C 
ATOM      2  N   ILE A   6      -5.483  13.645  27.972  0.00  0.00    -0.297 N 
ATOM      3  H   ILE A   6      -6.441  14.048  27.930  0.00  0.00    +0.150 HD
ATOM      4  O   GLY A   5      -3.574  13.220  26.899  0.00  0.00    -0.273 OA
ENDROOT
BRANCH   2   5
ATOM      5  CA  ILE A   6      -4.919  13.208  29.238  0.00  0.00    +0.149 C 
BRANCH   5   6
ATOM      6  C   ILE A   6      -5.059  11.715  29.295  0.00  0.00    +0.241 C 
ATOM      7  N   GLY A   7      -3.979  11.067  29.628  0.00  0.00    -0.295 N 
ATOM      8  H   GLY A   7      -3.108  11.548  29.930  0.00  0.00    +0.150 HD
ATOM      9  O   ILE A   6      -6.115  11.162  29.060  0.00  0.00    -0.273 OA
BRANCH   7  10
ATOM     10  CA  GLY A   7      -4.086   9.622  29.545  0.00  0.00    +0.176 C 
BRANCH  10  11
ATOM     11  C   GLY A   7      -3.290   9.106  28.374  0.00  0.00    +0.243 C 
ATOM     12  O   GLY A   7      -2.722   8.035  28.443  0.00  0.00    -0.273 OA
ATOM     13  N   GLY A   8      -3.203   9.893  27.310  0.00  0.00    -0.295 N 
ATOM     14  H   GLY A   8      -3.709  10.800  27.261  0.00  0.00    +0.150 HD
BRANCH  13  15
ATOM     15  CA  GLY A   8      -2.369   9.429  26.219  0.00  0.00    +0.176 C 
BRANCH  15  16
ATOM     16  C   GLY A   8      -2.993   9.711  24.882  0.00  0.00    +0.243 C 
ATOM     17  O   GLY A   8      -3.609  10.739  24.652  0.00  0.00    -0.273 OA
ATOM     18  N   PHE A   9      -2.788   8.767  23.988  0.00  0.00    -0.297 N 
ATOM     19  H   PHE A   9      -2.327   7.875  24.261  0.00  0.00    +0.150 HD
BRANCH  18  20
ATOM     20  CA  PHE A   9      -3.213   8.985  22.614  0.00  0.00    +0.153 C 
BRANCH  20  21
ATOM     21  C   PHE A   9      -4.194   7.944  22.177  0.00  0.00    +0.241 C 
ATOM     22  O   PHE A   9      -4.150   6.812  22.625  0.00  0.00    -0.273 OA
ATOM     23  N   ILE A  10      -5.088   8.363  21.295  0.00  0.00    -0.298 N 
ATOM     24  H   ILE A  10      -5.119   9.367  21.027  0.00  0.00    +0.150 HD
BRANCH  23  25
ATOM     25  CA  ILE A  10      -6.033   7.419  20.696  0.00  0.00    +0.137 C 
BRANCH  25  26
ATOM     26  C   ILE A  10      -6.079   7.603  19.192  0.00  0.00    +0.227 C 
ATOM     27  O   ILE A  10      -5.696   8.627  18.640  0.00  0.00    -0.286 OA
ENDBRANCH  25  26
BRANCH  25  28
ATOM     28  CB  ILE A  10      -7.458   7.515  21.282  0.00  0.00    +0.026 C 
ATOM     29  CG2 ILE A  10      -7.439   7.115  22.757  0.00  0.00    +0.002 C 
BRANCH  28  30
ATOM     30  CG1 ILE A  10      -8.187   8.848  21.071  0.00  0.00    +0.002 C 
ATOM     31  CD1 ILE A  10      -9.660   8.836  21.474  0.00  0.00    +0.000 C 
ENDBRANCH  28  30
ENDBRANCH  25  28
ENDBRANCH  23  25
ENDBRANCH  20  21
BRANCH  20  32
ATOM     32  CB  PHE A   9      -2.008   9.033  21.667  0.00  0.00    +0.055 C 
BRANCH  32  33
ATOM     33  CG  PHE A   9      -0.993   7.924  21.887  0.00  0.00    -0.020 A 
ATOM     34  CD2 PHE A   9       0.080   8.113  22.796  0.00  0.00    -0.004 A 
ATOM     35  CE2 PHE A   9       1.056   7.100  22.945  0.00  0.00    -0.000 A 
ATOM     36  CZ  PHE A   9       0.960   5.902  22.206  0.00  0.00    -0.000 A 
ATOM     37  CE1 PHE A   9      -0.110   5.702  21.307  0.00  0.00    -0.000 A 
ATOM     38  CD1 PHE A   9      -1.087   6.715  21.148  0.00  0.00    -0.004 A 
ENDBRANCH  32  33
ENDBRANCH  20  32
ENDBRANCH  18  20
ENDBRANCH  15  16
ENDBRANCH  13  15
ENDBRANCH  10  11
ENDBRANCH   7  10
ENDBRANCH   5   6
BRANCH   5  39
ATOM     39  CB  ILE A   6      -5.712  13.881  30.351  0.00  0.00    +0.027 C 
ATOM     40  CG2 ILE A   6      -6.166  12.976  31.515  0.00  0.00    +0.002 C 
BRANCH  39  41
ATOM     41  CG1 ILE A   6      -4.835  14.983  30.908  0.00  0.00    +0.002 C 
ATOM     42  CD1 ILE A   6      -5.555  15.758  32.005  0.00  0.00    +0.000 C 
ENDBRANCH  39  41
ENDBRANCH   5  39
ENDBRANCH   2   5
BRANCH   1  43
ATOM     43  CA  GLY A   5      -5.512  13.741  25.595  0.00  0.00    +0.176 C 
BRANCH  43  45
ATOM     44  C   GLY A   4      -4.713  13.812  23.324  0.00  0.00    +0.243 C 
ATOM     45  N   GLY A   5      -4.729  13.213  24.497  0.00  0.00    -0.295 N 
ATOM     46  H   GLY A   5      -4.170  12.347  24.637  0.00  0.00    +0.150 HD
ATOM     47  O   GLY A   4      -5.355  14.821  23.049  0.00  0.00    -0.273 OA
BRANCH  44  48
ATOM     48  CA  GLY A   4      -3.798  13.137  22.323  0.00  0.00    +0.176 C 
BRANCH  48  50
ATOM     49  C   ILE A   3      -4.605  12.154  20.241  0.00  0.00    +0.241 C 
ATOM     50  N   GLY A   4      -4.272  13.227  20.944  0.00  0.00    -0.295 N 
ATOM     51  H   GLY A   4      -4.351  14.164  20.499  0.00  0.00    +0.150 HD
ATOM     52  O   ILE A   3      -4.570  11.002  20.651  0.00  0.00    -0.273 OA
BRANCH  49  53
ATOM     53  CA  ILE A   3      -5.024  12.445  18.831  0.00  0.00    +0.149 C 
BRANCH  53  55
ATOM     54  C   MET A   2      -4.293  11.238  16.927  0.00  0.00    +0.241 C 
ATOM     55  N   ILE A   3      -4.944  11.210  18.072  0.00  0.00    -0.297 N 
ATOM     56  H   ILE A   3      -5.385  10.335  18.420  0.00  0.00    +0.150 HD
ATOM     57  O   MET A   2      -3.826  12.250  16.429  0.00  0.00    -0.273 OA
BRANCH  54  58
ATOM     58  CA  MET A   2      -4.214   9.932  16.199  0.00  0.00    +0.149 C 
BRANCH  58  60
ATOM     59  C   LYS A   1      -5.485   9.539  14.192  0.00  0.00    +0.238 C 
ATOM     60  N   MET A   2      -4.518  10.202  14.804  0.00  0.00    -0.297 N 
ATOM     61  H   MET A   2      -3.973  10.920  14.285  0.00  0.00    +0.150 HD
ATOM     62  O   LYS A   1      -6.109   8.623  14.706  0.00  0.00    -0.274 OA
BRANCH  59  63
ATOM     63  CA  LYS A   1      -5.781   9.970  12.786  0.00  0.00    +0.145 C 
BRANCH  63  64
ATOM     64  N   LYS A   1      -6.541   8.886  12.200  0.00  0.00    -0.238 NA
ATOM     65  H   LYS A   1      -7.225   8.347  12.769  0.00  0.00    +0.142 HD
ENDBRANCH  63  64
BRANCH  63  66
ATOM     66  CB  LYS A   1      -6.612  11.262  12.767  0.00  0.00    +0.026 C 
BRANCH  66  67
ATOM     67  CG  LYS A   1      -5.747  12.521  12.853  0.00  0.00    -0.000 C 
BRANCH  67  68
ATOM     68  CD  LYS A   1      -6.504  13.852  12.996  0.00  0.00    -0.024 C 
BRANCH  68  69
ATOM     69  CE  LYS A   1      -5.627  15.106  12.738  0.00  0.00    -0.086 C 
BRANCH  69  70
ATOM     70  NZ  LYS A   1      -5.025  15.106  11.379  0.00  0.00    +0.380 N 
ATOM     71  HZ1 LYS A   1      -4.424  14.264  11.267  0.00  0.00    -0.089 HD
ATOM     72  HZ2 LYS A   1      -4.449  15.963  11.256  0.00  0.00    -0.089 HD
ATOM     73  HZ3 LYS A   1      -5.782  15.090  10.666  0.00  0.00    -0.089 HD
ENDBRANCH  69  70
ENDBRANCH  68  69
ENDBRANCH  67  68
ENDBRANCH  66  67
ENDBRANCH  63  66
ENDBRANCH  59  63
ENDBRANCH  58  60
BRANCH  58  74
ATOM     74  CB  MET A   2      -2.810   9.371  16.217  0.00  0.00    +0.041 C 
BRANCH  74  75
ATOM     75  CG  MET A   2      -2.320   8.794  17.521  0.00  0.00    +0.060 C 
BRANCH  75  76
ATOM     76  SD  MET A   2      -1.146   7.525  17.045  0.00  0.00    -0.139 S 
ATOM     77  CE  MET A   2      -2.367   6.386  16.377  0.00  0.00    +0.069 C 
ENDBRANCH  75  76
ENDBRANCH  74  75
ENDBRANCH  58  74
ENDBRANCH  54  58
ENDBRANCH  53  55
BRANCH  53  78
ATOM     78  CB  ILE A   3      -6.429  13.064  18.837  0.00  0.00    +0.027 C 
ATOM     79  CG2 ILE A   3      -6.848  13.577  17.459  0.00  0.00    +0.002 C 
BRANCH  78  80
ATOM     80  CG1 ILE A   3      -7.513  12.207  19.454  0.00  0.00    +0.002 C 
ATOM     81  CD1 ILE A   3      -8.630  13.124  19.941  0.00  0.00    +0.000 C 
ENDBRANCH  78  80
ENDBRANCH  53  78
ENDBRANCH  49  53
ENDBRANCH  48  50
ENDBRANCH  44  48
ENDBRANCH  43  45
ENDBRANCH   1  43
TORSDOF 36
REMARK  Name = ../refined-set-2016/1bwb/1bwb_pocket.pdb
REMARK  249 active torsions:
REMARK  status: ('A' for Active; 'I' for Inactive)
REMARK    1  A    between atoms: _1  and  _3
REMARK    2  A    between atoms: _3  and  _4
REMARK    3  A    between atoms: _3  and  _6
REMARK    4  A    between atoms: _6  and  _7
REMARK    5  A    between atoms: _7  and  _8
REMARK    6  A    between atoms: _8  and  _9
REMARK    7  A    between atoms: _18  and  _20
REMARK    8  A    between atoms: _20  and  _21
REMARK    9  A    between atoms: _20  and  _23
REMARK   10  A    between atoms: _23  and  _24
REMARK   11  A    between atoms: _27  and  _29
REMARK   12  A    between atoms: _29  and  _30
REMARK   13  A    between atoms: _29  and  _32
REMARK   14  A    between atoms: _32  and  _33
REMARK   15  A    between atoms: _36  and  _38
REMARK   16  A    between atoms: _38  and  _39
REMARK   17  A    between atoms: _38  and  _41
REMARK   18  A    between atoms: _41  and  _42
REMARK   19  A    between atoms: _45  and  _47
REMARK   20  A    between atoms: _47  and  _48
REMARK   21  A    between atoms: _47  and  _50
REMARK   22  A    between atoms: _50  and  _51
REMARK   23  A    between atoms: _54  and  _56
REMARK   24  A    between atoms: _56  and  _57
REMARK   25  A    between atoms: _59  and  _61
REMARK   26  A    between atoms: _61  and  _62
REMARK   27  A    between atoms: _65  and  _67
REMARK   28  A    between atoms: _67  and  _68
REMARK   29  A    between atoms: _67  and  _70
REMARK   30  A    between atoms: _70  and  _71
REMARK   31  A    between atoms: _74  and  _76
REMARK   32  A    between atoms: _76  and  _77
REMARK   33  A    between atoms: _76  and  _79
REMARK   34  A    between atoms: _79  and  _80
REMARK   35  A    between atoms: _83  and  _85
REMARK   36  A    between atoms: _85  and  _86
REMARK   37  A    between atoms: _85  and  _88
REMARK   38  A    between atoms: _88  and  _89
REMARK   39  A    between atoms: _92  and  _94
REMARK   40  A    between atoms: _94  and  _95
REMARK   41  A    between atoms: _94  and  _97
REMARK   42  A    between atoms: _100  and  _102
REMARK   43  A    between atoms: _102  and  _103
REMARK   44  A    between atoms: _102  and  _105
REMARK   45  A    between atoms: _105  and  _106
REMARK   46  A    between atoms: _109  and  _111
REMARK   47  A    between atoms: _111  and  _112
REMARK   48  A    between atoms: _111  and  _114
REMARK   49  A    between atoms: _114  and  _115
REMARK   50  A    between atoms: _115  and  _116
REMARK   51  A    between atoms: _116  and  _117
REMARK   52  A    between atoms: _117  and  _118
REMARK   53  A    between atoms: _122  and  _124
REMARK   54  A    between atoms: _124  and  _125
REMARK   55  A    between atoms: _124  and  _127
REMARK   56  A    between atoms: _127  and  _128
REMARK   57  A    between atoms: _128  and  _129
REMARK   58  A    between atoms: _131  and  _133
REMARK   59  A    between atoms: _133  and  _134
REMARK   60  A    between atoms: _133  and  _136
REMARK   61  A    between atoms: _136  and  _137
REMARK   62  A    between atoms: _140  and  _142
REMARK   63  A    between atoms: _142  and  _143
REMARK   64  A    between atoms: _145  and  _147
REMARK   65  A    between atoms: _147  and  _148
REMARK   66  A    between atoms: _150  and  _152
REMARK   67  A    between atoms: _152  and  _153
REMARK   68  A    between atoms: _152  and  _155
REMARK   69  A    between atoms: _155  and  _156
REMARK   70  A    between atoms: _159  and  _161
REMARK   71  A    between atoms: _161  and  _162
REMARK   72  A    between atoms: _164  and  _166
REMARK   73  A    between atoms: _166  and  _167
REMARK   74  A    between atoms: _169  and  _171
REMARK   75  A    between atoms: _171  and  _172
REMARK   76  A    between atoms: _171  and  _174
REMARK   77  A    between atoms: _174  and  _175
REMARK   78  A    between atoms: _181  and  _183
REMARK   79  A    between atoms: _183  and  _184
REMARK   80  A    between atoms: _183  and  _186
REMARK   81  A    between atoms: _186  and  _187
REMARK   82  A    between atoms: _190  and  _192
REMARK   83  A    between atoms: _192  and  _193
REMARK   84  A    between atoms: _192  and  _195
REMARK   85  A    between atoms: _198  and  _200
REMARK   86  A    between atoms: _200  and  _201
REMARK   87  A    between atoms: _200  and  _203
REMARK   88  A    between atoms: _203  and  _204
REMARK   89  A    between atoms: _204  and  _205
REMARK   90  A    between atoms: _210  and  _212
REMARK   91  A    between atoms: _212  and  _213
REMARK   92  A    between atoms: _212  and  _215
REMARK   93  A    between atoms: _215  and  _216
REMARK   94  A    between atoms: _220  and  _221
REMARK   95  A    between atoms: _226  and  _228
REMARK   96  A    between atoms: _228  and  _229
REMARK   97  A    between atoms: _228  and  _231
REMARK   98  A    between atoms: _231  and  _232
REMARK   99  A    between atoms: _236  and  _237
REMARK  100  A    between atoms: _242  and  _244
REMARK  101  A    between atoms: _244  and  _245
REMARK  102  A    between atoms: _244  and  _247
REMARK  103  A    between atoms: _247  and  _248
REMARK  104  A    between atoms: _254  and  _256
REMARK  105  A    between atoms: _256  and  _257
REMARK  106  A    between atoms: _256  and  _259
REMARK  107  A    between atoms: _259  and  _260
REMARK  108  A    between atoms: _265  and  _267
REMARK  109  A    between atoms: _267  and  _268
REMARK  110  A    between atoms: _267  and  _270
REMARK  111  A    between atoms: _273  and  _275
REMARK  112  A    between atoms: _275  and  _276
REMARK  113  A    between atoms: _275  and  _278
REMARK  114  A    between atoms: _278  and  _279
REMARK  115  A    between atoms: _282  and  _284
REMARK  116  A    between atoms: _284  and  _285
REMARK  117  A    between atoms: _287  and  _289
REMARK  118  A    between atoms: _289  and  _290
REMARK  119  A    between atoms: _289  and  _292
REMARK  120  A    between atoms: _292  and  _293
REMARK  121  A    between atoms: _293  and  _294
REMARK  122  A    between atoms: _294  and  _295
REMARK  123  A    between atoms: _304  and  _306
REMARK  124  A    between atoms: _306  and  _307
REMARK  125  A    between atoms: _306  and  _309
REMARK  126  A    between atoms: _309  and  _310
REMARK  127  A    between atoms: _315  and  _317
REMARK  128  A    between atoms: _317  and  _318
REMARK  129  A    between atoms: _317  and  _320
REMARK  130  A    between atoms: _320  and  _321
REMARK  131  A    between atoms: _321  and  _322
REMARK  132  A    between atoms: _322  and  _323
REMARK  133  A    between atoms: _332  and  _334
REMARK  134  A    between atoms: _334  and  _335
REMARK  135  A    between atoms: _334  and  _337
REMARK  136  A    between atoms: _337  and  _338
REMARK  137  A    between atoms: _341  and  _343
REMARK  138  A    between atoms: _343  and  _344
REMARK  139  A    between atoms: _343  and  _346
REMARK  140  A    between atoms: _346  and  _347
REMARK  141  A    between atoms: _350  and  _352
REMARK  142  A    between atoms: _352  and  _353
REMARK  143  A    between atoms: _352  and  _355
REMARK  144  A    between atoms: _355  and  _356
REMARK  145  A    between atoms: _359  and  _361
REMARK  146  A    between atoms: _361  and  _362
REMARK  147  A    between atoms: _361  and  _364
REMARK  148  A    between atoms: _364  and  _365
REMARK  149  A    between atoms: _368  and  _370
REMARK  150  A    between atoms: _370  and  _371
REMARK  151  A    between atoms: _373  and  _375
REMARK  152  A    between atoms: _375  and  _376
REMARK  153  A    between atoms: _379  and  _381
REMARK  154  A    between atoms: _381  and  _382
REMARK  155  A    between atoms: _381  and  _384
REMARK  156  A    between atoms: _384  and  _385
REMARK  157  A    between atoms: _388  and  _390
REMARK  158  A    between atoms: _390  and  _391
REMARK  159  A    between atoms: _390  and  _393
REMARK  160  A    between atoms: _393  and  _394
REMARK  161  A    between atoms: _397  and  _399
REMARK  162  A    between atoms: _399  and  _400
REMARK  163  A    between atoms: _399  and  _402
REMARK  164  A    between atoms: _402  and  _403
REMARK  165  A    between atoms: _406  and  _408
REMARK  166  A    between atoms: _408  and  _409
REMARK  167  A    between atoms: _408  and  _411
REMARK  168  A    between atoms: _414  and  _416
REMARK  169  A    between atoms: _416  and  _417
REMARK  170  A    between atoms: _416  and  _419
REMARK  171  A    between atoms: _419  and  _420
REMARK  172  A    between atoms: _423  and  _425
REMARK  173  A    between atoms: _425  and  _426
REMARK  174  A    between atoms: _425  and  _428
REMARK  175  A    between atoms: _428  and  _429
REMARK  176  A    between atoms: _429  and  _430
REMARK  177  A    between atoms: _430  and  _431
REMARK  178  A    between atoms: _431  and  _432
REMARK  179  A    between atoms: _436  and  _438
REMARK  180  A    between atoms: _438  and  _439
REMARK  181  A    between atoms: _438  and  _441
REMARK  182  A    between atoms: _441  and  _442
REMARK  183  A    between atoms: _442  and  _443
REMARK  184  A    between atoms: _445  and  _447
REMARK  185  A    between atoms: _447  and  _448
REMARK  186  A    between atoms: _447  and  _450
REMARK  187  A    between atoms: _450  and  _451
REMARK  188  A    between atoms: _454  and  _456
REMARK  189  A    between atoms: _456  and  _457
REMARK  190  A    between atoms: _459  and  _461
REMARK  191  A    between atoms: _461  and  _462
REMARK  192  A    between atoms: _464  and  _466
REMARK  193  A    between atoms: _466  and  _467
REMARK  194  A    between atoms: _466  and  _469
REMARK  195  A    between atoms: _469  and  _470
REMARK  196  A    between atoms: _473  and  _475
REMARK  197  A    between atoms: _475  and  _476
REMARK  198  A    between atoms: _478  and  _480
REMARK  199  A    between atoms: _480  and  _481
REMARK  200  A    between atoms: _483  and  _485
REMARK  201  A    between atoms: _485  and  _486
REMARK  202  A    between atoms: _485  and  _488
REMARK  203  A    between atoms: _488  and  _489
REMARK  204  A    between atoms: _495  and  _497
REMARK  205  A    between atoms: _497  and  _498
REMARK  206  A    between atoms: _497  and  _500
REMARK  207  A    between atoms: _500  and  _501
REMARK  208  A    between atoms: _504  and  _506
REMARK  209  A    between atoms: _506  and  _507
REMARK  210  A    between atoms: _506  and  _509
REMARK  211  A    between atoms: _509  and  _510
REMARK  212  A    between atoms: _510  and  _511
REMARK  213  A    between atoms: _516  and  _518
REMARK  214  A    between atoms: _518  and  _519
REMARK  215  A    between atoms: _518  and  _521
REMARK  216  A    between atoms: _521  and  _522
REMARK  217  A    between atoms: _526  and  _527
REMARK  218  A    between atoms: _532  and  _534
REMARK  219  A    between atoms: _534  and  _535
REMARK  220  A    between atoms: _534  and  _537
REMARK  221  A    between atoms: _537  and  _538
REMARK  222  A    between atoms: _542  and  _543
REMARK  223  A    between atoms: _548  and  _550
REMARK  224  A    between atoms: _550  and  _551
REMARK  225  A    between atoms: _550  and  _553
REMARK  226  A    between atoms: _553  and  _554
REMARK  227  A    between atoms: _560  and  _562
REMARK  228  A    between atoms: _562  and  _563
REMARK  229  A    between atoms: _562  and  _565
REMARK  230  A    between atoms: _565  and  _566
REMARK  231  A    between atoms: _571  and  _573
REMARK  232  A    between atoms: _573  and  _574
REMARK  233  A    between atoms: _573  and  _576
REMARK  234  A    between atoms: _579  and  _581
REMARK  235  A    between atoms: _581  and  _582
REMARK  236  A    between atoms: _581  and  _584
REMARK  237  A    between atoms: _584  and  _585
REMARK  238  A    between atoms: _588  and  _590
REMARK  239  A    between atoms: _590  and  _591
REMARK  240  A    between atoms: _593  and  _595
REMARK  241  A    between atoms: _595  and  _596
REMARK  242  A    between atoms: _595  and  _598
REMARK  243  A    between atoms: _598  and  _599
REMARK  244  A    between atoms: _599  and  _600
REMARK  245  A    between atoms: _600  and  _601
REMARK  246  A    between atoms: _610  and  _612
REMARK  247  A    between atoms: _612  and  _613
REMARK  248  A    between atoms: _612  and  _615
REMARK  249  A    between atoms: _615  and  _616
REMARK                            x       y       z     vdW  Elec       q    Type
REMARK                         _______ _______ _______ _____ _____    ______ ____
ROOT
ATOM      1  CB  GLN A   1     -10.240  12.306  10.312  0.00  0.00    +0.035 C 
ENDROOT
BRANCH   1   2
ATOM      2  CA  GLN A   1     -11.527  11.605  10.715  0.00  0.00    +0.134 C 
BRANCH   2   3
ATOM      3  N   GLN A   1     -11.176  10.237  11.022  0.00  0.00    -0.239 NA
ATOM      4  H   GLN A   1     -10.390   9.768  10.528  0.00  0.00    +0.142 HD
ENDBRANCH   2   3
BRANCH   2   5
ATOM      5  C   GLN A   1     -12.529  11.693   9.584  0.00  0.00    +0.224 C 
ATOM      6  O   GLN A   1     -12.271  11.177   8.508  0.00  0.00    -0.287 OA
ENDBRANCH   2   5
ENDBRANCH   1   2
BRANCH   1   7
ATOM      7  CG  GLN A   1     -10.526  13.713   9.796  0.00  0.00    +0.087 C 
BRANCH   7   8
ATOM      8  CD  GLN A   1      -9.231  14.455   9.619  0.00  0.00    +0.219 C 
ATOM      9  OE1 GLN A   1      -8.199  14.093  10.144  0.00  0.00    -0.275 OA
ATOM     10  NE2 GLN A   1      -9.308  15.556   8.878  0.00  0.00    -0.329 N 
ATOM     11 HE21 GLN A   1      -8.463  16.144   8.730  0.00  0.00    +0.145 HD
ATOM     12 HE22 GLN A   1     -10.214  15.830   8.446  0.00  0.00    +0.145 HD
ENDBRANCH   7   8
ENDBRANCH   1   7
TORSDOF 5
REMARK  Name = ../refined-set-2016/1bwb/1bwb_pocket.pdb
REMARK  249 active torsions:
REMARK  status: ('A' for Active; 'I' for Inactive)
REMARK    1  A    between atoms: _1  and  _3
REMARK    2  A    between atoms: _3  and  _4
REMARK    3  A    between atoms: _3  and  _6
REMARK    4  A    between atoms: _6  and  _7
REMARK    5  A    between atoms: _7  and  _8
REMARK    6  A    between atoms: _8  and  _9
REMARK    7  A    between atoms: _18  and  _20
REMARK    8  A    between atoms: _20  and  _21
REMARK    9  A    between atoms: _20  and  _23
REMARK   10  A    between atoms: _23  and  _24
REMARK   11  A    between atoms: _27  and  _29
REMARK   12  A    between atoms: _29  and  _30
REMARK   13  A    between atoms: _29  and  _32
REMARK   14  A    between atoms: _32  and  _33
REMARK   15  A    between atoms: _36  and  _38
REMARK   16  A    between atoms: _38  and  _39
REMARK   17  A    between atoms: _38  and  _41
REMARK   18  A    between atoms: _41  and  _42
REMARK   19  A    between atoms: _45  and  _47
REMARK   20  A    between atoms: _47  and  _48
REMARK   21  A    between atoms: _47  and  _50
REMARK   22  A    between atoms: _50  and  _51
REMARK   23  A    between atoms: _54  and  _56
REMARK   24  A    between atoms: _56  and  _57
REMARK   25  A    between atoms: _59  and  _61
REMARK   26  A    between atoms: _61  and  _62
REMARK   27  A    between atoms: _65  and  _67
REMARK   28  A    between atoms: _67  and  _68
REMARK   29  A    between atoms: _67  and  _70
REMARK   30  A    between atoms: _70  and  _71
REMARK   31  A    between atoms: _74  and  _76
REMARK   32  A    between atoms: _76  and  _77
REMARK   33  A    between atoms: _76  and  _79
REMARK   34  A    between atoms: _79  and  _80
REMARK   35  A    between atoms: _83  and  _85
REMARK   36  A    between atoms: _85  and  _86
REMARK   37  A    between atoms: _85  and  _88
REMARK   38  A    between atoms: _88  and  _89
REMARK   39  A    between atoms: _92  and  _94
REMARK   40  A    between atoms: _94  and  _95
REMARK   41  A    between atoms: _94  and  _97
REMARK   42  A    between atoms: _100  and  _102
REMARK   43  A    between atoms: _102  and  _103
REMARK   44  A    between atoms: _102  and  _105
REMARK   45  A    between atoms: _105  and  _106
REMARK   46  A    between atoms: _109  and  _111
REMARK   47  A    between atoms: _111  and  _112
REMARK   48  A    between atoms: _111  and  _114
REMARK   49  A    between atoms: _114  and  _115
REMARK   50  A    between atoms: _115  and  _116
REMARK   51  A    between atoms: _116  and  _117
REMARK   52  A    between atoms: _117  and  _118
REMARK   53  A    between atoms: _122  and  _124
REMARK   54  A    between atoms: _124  and  _125
REMARK   55  A    between atoms: _124  and  _127
REMARK   56  A    between atoms: _127  and  _128
REMARK   57  A    between atoms: _128  and  _129
REMARK   58  A    between atoms: _131  and  _133
REMARK   59  A    between atoms: _133  and  _134
REMARK   60  A    between atoms: _133  and  _136
REMARK   61  A    between atoms: _136  and  _137
REMARK   62  A    between atoms: _140  and  _142
REMARK   63  A    between atoms: _142  and  _143
REMARK   64  A    between atoms: _145  and  _147
REMARK   65  A    between atoms: _147  and  _148
REMARK   66  A    between atoms: _150  and  _152
REMARK   67  A    between atoms: _152  and  _153
REMARK   68  A    between atoms: _152  and  _155
REMARK   69  A    between atoms: _155  and  _156
REMARK   70  A    between atoms: _159  and  _161
REMARK   71  A    between atoms: _161  and  _162
REMARK   72  A    between atoms: _164  and  _166
REMARK   73  A    between atoms: _166  and  _167
REMARK   74  A    between atoms: _169  and  _171
REMARK   75  A    between atoms: _171  and  _172
REMARK   76  A    between atoms: _171  and  _174
REMARK   77  A    between atoms: _174  and  _175
REMARK   78  A    between atoms: _181  and  _183
REMARK   79  A    between atoms: _183  and  _184
REMARK   80  A    between atoms: _183  and  _186
REMARK   81  A    between atoms: _186  and  _187
REMARK   82  A    between atoms: _190  and  _192
REMARK   83  A    between atoms: _192  and  _193
REMARK   84  A    between atoms: _192  and  _195
REMARK   85  A    between atoms: _198  and  _200
REMARK   86  A    between atoms: _200  and  _201
REMARK   87  A    between atoms: _200  and  _203
REMARK   88  A    between atoms: _203  and  _204
REMARK   89  A    between atoms: _204  and  _205
REMARK   90  A    between atoms: _210  and  _212
REMARK   91  A    between atoms: _212  and  _213
REMARK   92  A    between atoms: _212  and  _215
REMARK   93  A    between atoms: _215  and  _216
REMARK   94  A    between atoms: _220  and  _221
REMARK   95  A    between atoms: _226  and  _228
REMARK   96  A    between atoms: _228  and  _229
REMARK   97  A    between atoms: _228  and  _231
REMARK   98  A    between atoms: _231  and  _232
REMARK   99  A    between atoms: _236  and  _237
REMARK  100  A    between atoms: _242  and  _244
REMARK  101  A    between atoms: _244  and  _245
REMARK  102  A    between atoms: _244  and  _247
REMARK  103  A    between atoms: _247  and  _248
REMARK  104  A    between atoms: _254  and  _256
REMARK  105  A    between atoms: _256  and  _257
REMARK  106  A    between atoms: _256  and  _259
REMARK  107  A    between atoms: _259  and  _260
REMARK  108  A    between atoms: _265  and  _267
REMARK  109  A    between atoms: _267  and  _268
REMARK  110  A    between atoms: _267  and  _270
REMARK  111  A    between atoms: _273  and  _275
REMARK  112  A    between atoms: _275  and  _276
REMARK  113  A    between atoms: _275  and  _278
REMARK  114  A    between atoms: _278  and  _279
REMARK  115  A    between atoms: _282  and  _284
REMARK  116  A    between atoms: _284  and  _285
REMARK  117  A    between atoms: _287  and  _289
REMARK  118  A    between atoms: _289  and  _290
REMARK  119  A    between atoms: _289  and  _292
REMARK  120  A    between atoms: _292  and  _293
REMARK  121  A    between atoms: _293  and  _294
REMARK  122  A    between atoms: _294  and  _295
REMARK  123  A    between atoms: _304  and  _306
REMARK  124  A    between atoms: _306  and  _307
REMARK  125  A    between atoms: _306  and  _309
REMARK  126  A    between atoms: _309  and  _310
REMARK  127  A    between atoms: _315  and  _317
REMARK  128  A    between atoms: _317  and  _318
REMARK  129  A    between atoms: _317  and  _320
REMARK  130  A    between atoms: _320  and  _321
REMARK  131  A    between atoms: _321  and  _322
REMARK  132  A    between atoms: _322  and  _323
REMARK  133  A    between atoms: _332  and  _334
REMARK  134  A    between atoms: _334  and  _335
REMARK  135  A    between atoms: _334  and  _337
REMARK  136  A    between atoms: _337  and  _338
REMARK  137  A    between atoms: _341  and  _343
REMARK  138  A    between atoms: _343  and  _344
REMARK  139  A    between atoms: _343  and  _346
REMARK  140  A    between atoms: _346  and  _347
REMARK  141  A    between atoms: _350  and  _352
REMARK  142  A    between atoms: _352  and  _353
REMARK  143  A    between atoms: _352  and  _355
REMARK  144  A    between atoms: _355  and  _356
REMARK  145  A    between atoms: _359  and  _361
REMARK  146  A    between atoms: _361  and  _362
REMARK  147  A    between atoms: _361  and  _364
REMARK  148  A    between atoms: _364  and  _365
REMARK  149  A    between atoms: _368  and  _370
REMARK  150  A    between atoms: _370  and  _371
REMARK  151  A    between atoms: _373  and  _375
REMARK  152  A    between atoms: _375  and  _376
REMARK  153  A    between atoms: _379  and  _381
REMARK  154  A    between atoms: _381  and  _382
REMARK  155  A    between atoms: _381  and  _384
REMARK  156  A    between atoms: _384  and  _385
REMARK  157  A    between atoms: _388  and  _390
REMARK  158  A    between atoms: _390  and  _391
REMARK  159  A    between atoms: _390  and  _393
REMARK  160  A    between atoms: _393  and  _394
REMARK  161  A    between atoms: _397  and  _399
REMARK  162  A    between atoms: _399  and  _400
REMARK  163  A    between atoms: _399  and  _402
REMARK  164  A    between atoms: _402  and  _403
REMARK  165  A    between atoms: _406  and  _408
REMARK  166  A    between atoms: _408  and  _409
REMARK  167  A    between atoms: _408  and  _411
REMARK  168  A    between atoms: _414  and  _416
REMARK  169  A    between atoms: _416  and  _417
REMARK  170  A    between atoms: _416  and  _419
REMARK  171  A    between atoms: _419  and  _420
REMARK  172  A    between atoms: _423  and  _425
REMARK  173  A    between atoms: _425  and  _426
REMARK  174  A    between atoms: _425  and  _428
REMARK  175  A    between atoms: _428  and  _429
REMARK  176  A    between atoms: _429  and  _430
REMARK  177  A    between atoms: _430  and  _431
REMARK  178  A    between atoms: _431  and  _432
REMARK  179  A    between atoms: _436  and  _438
REMARK  180  A    between atoms: _438  and  _439
REMARK  181  A    between atoms: _438  and  _441
REMARK  182  A    between atoms: _441  and  _442
REMARK  183  A    between atoms: _442  and  _443
REMARK  184  A    between atoms: _445  and  _447
REMARK  185  A    between atoms: _447  and  _448
REMARK  186  A    between atoms: _447  and  _450
REMARK  187  A    between atoms: _450  and  _451
REMARK  188  A    between atoms: _454  and  _456
REMARK  189  A    between atoms: _456  and  _457
REMARK  190  A    between atoms: _459  and  _461
REMARK  191  A    between atoms: _461  and  _462
REMARK  192  A    between atoms: _464  and  _466
REMARK  193  A    between atoms: _466  and  _467
REMARK  194  A    between atoms: _466  and  _469
REMARK  195  A    between atoms: _469  and  _470
REMARK  196  A    between atoms: _473  and  _475
REMARK  197  A    between atoms: _475  and  _476
REMARK  198  A    between atoms: _478  and  _480
REMARK  199  A    between atoms: _480  and  _481
REMARK  200  A    between atoms: _483  and  _485
REMARK  201  A    between atoms: _485  and  _486
REMARK  202  A    between atoms: _485  and  _488
REMARK  203  A    between atoms: _488  and  _489
REMARK  204  A    between atoms: _495  and  _497
REMARK  205  A    between atoms: _497  and  _498
REMARK  206  A    between atoms: _497  and  _500
REMARK  207  A    between atoms: _500  and  _501
REMARK  208  A    between atoms: _504  and  _506
REMARK  209  A    between atoms: _506  and  _507
REMARK  210  A    between atoms: _506  and  _509
REMARK  211  A    between atoms: _509  and  _510
REMARK  212  A    between atoms: _510  and  _511
REMARK  213  A    between atoms: _516  and  _518
REMARK  214  A    between atoms: _518  and  _519
REMARK  215  A    between atoms: _518  and  _521
REMARK  216  A    between atoms: _521  and  _522
REMARK  217  A    between atoms: _526  and  _527
REMARK  218  A    between atoms: _532  and  _534
REMARK  219  A    between atoms: _534  and  _535
REMARK  220  A    between atoms: _534  and  _537
REMARK  221  A    between atoms: _537  and  _538
REMARK  222  A    between atoms: _542  and  _543
REMARK  223  A    between atoms: _548  and  _550
REMARK  224  A    between atoms: _550  and  _551
REMARK  225  A    between atoms: _550  and  _553
REMARK  226  A    between atoms: _553  and  _554
REMARK  227  A    between atoms: _560  and  _562
REMARK  228  A    between atoms: _562  and  _563
REMARK  229  A    between atoms: _562  and  _565
REMARK  230  A    between atoms: _565  and  _566
REMARK  231  A    between atoms: _571  and  _573
REMARK  232  A    between atoms: _573  and  _574
REMARK  233  A    between atoms: _573  and  _576
REMARK  234  A    between atoms: _579  and  _581
REMARK  235  A    between atoms: _581  and  _582
REMARK  236  A    between atoms: _581  and  _584
REMARK  237  A    between atoms: _584  and  _585
REMARK  238  A    between atoms: _588  and  _590
REMARK  239  A    between atoms: _590  and  _591
REMARK  240  A    between atoms: _593  and  _595
REMARK  241  A    between atoms: _595  and  _596
REMARK  242  A    between atoms: _595  and  _598
REMARK  243  A    between atoms: _598  and  _599
REMARK  244  A    between atoms: _599  and  _600
REMARK  245  A    between atoms: _600  and  _601
REMARK  246  A    between atoms: _610  and  _612
REMARK  247  A    between atoms: _612  and  _613
REMARK  248  A    between atoms: _612  and  _615
REMARK  249  A    between atoms: _615  and  _616
REMARK                            x       y       z     vdW  Elec       q    Type
REMARK                         _______ _______ _______ _____ _____    ______ ____
ROOT
ATOM      1  CA  LEU A   1     -13.289  12.580  14.762  0.00  0.00    +0.133 C 
ENDROOT
BRANCH   1   2
ATOM      2  N   LEU A   1     -14.103  13.766  14.559  0.00  0.00    -0.239 NA
ATOM      3  H   LEU A   1     -14.332  14.383  15.364  0.00  0.00    +0.142 HD
ENDBRANCH   1   2
BRANCH   1   4
ATOM      4  C   LEU A   1     -14.129  11.598  15.519  0.00  0.00    +0.224 C 
ATOM      5  O   LEU A   1     -14.840  11.965  16.448  0.00  0.00    -0.287 OA
ENDBRANCH   1   4
BRANCH   1   6
ATOM      6  CB  LEU A   1     -12.003  12.915  15.571  0.00  0.00    +0.025 C 
BRANCH   6   7
ATOM      7  CG  LEU A   1     -11.192  14.112  15.038  0.00  0.00    +0.002 C 
ATOM      8  CD2 LEU A   1     -10.063  14.515  15.991  0.00  0.00    +0.000 C 
ATOM      9  CD1 LEU A   1     -10.638  13.836  13.655  0.00  0.00    +0.000 C 
ENDBRANCH   6   7
ENDBRANCH   1   6
TORSDOF 4
REMARK  Name = ../refined-set-2016/1bwb/1bwb_pocket.pdb
REMARK  249 active torsions:
REMARK  status: ('A' for Active; 'I' for Inactive)
REMARK    1  A    between atoms: _1  and  _3
REMARK    2  A    between atoms: _3  and  _4
REMARK    3  A    between atoms: _3  and  _6
REMARK    4  A    between atoms: _6  and  _7
REMARK    5  A    between atoms: _7  and  _8
REMARK    6  A    between atoms: _8  and  _9
REMARK    7  A    between atoms: _18  and  _20
REMARK    8  A    between atoms: _20  and  _21
REMARK    9  A    between atoms: _20  and  _23
REMARK   10  A    between atoms: _23  and  _24
REMARK   11  A    between atoms: _27  and  _29
REMARK   12  A    between atoms: _29  and  _30
REMARK   13  A    between atoms: _29  and  _32
REMARK   14  A    between atoms: _32  and  _33
REMARK   15  A    between atoms: _36  and  _38
REMARK   16  A    between atoms: _38  and  _39
REMARK   17  A    between atoms: _38  and  _41
REMARK   18  A    between atoms: _41  and  _42
REMARK   19  A    between atoms: _45  and  _47
REMARK   20  A    between atoms: _47  and  _48
REMARK   21  A    between atoms: _47  and  _50
REMARK   22  A    between atoms: _50  and  _51
REMARK   23  A    between atoms: _54  and  _56
REMARK   24  A    between atoms: _56  and  _57
REMARK   25  A    between atoms: _59  and  _61
REMARK   26  A    between atoms: _61  and  _62
REMARK   27  A    between atoms: _65  and  _67
REMARK   28  A    between atoms: _67  and  _68
REMARK   29  A    between atoms: _67  and  _70
REMARK   30  A    between atoms: _70  and  _71
REMARK   31  A    between atoms: _74  and  _76
REMARK   32  A    between atoms: _76  and  _77
REMARK   33  A    between atoms: _76  and  _79
REMARK   34  A    between atoms: _79  and  _80
REMARK   35  A    between atoms: _83  and  _85
REMARK   36  A    between atoms: _85  and  _86
REMARK   37  A    between atoms: _85  and  _88
REMARK   38  A    between atoms: _88  and  _89
REMARK   39  A    between atoms: _92  and  _94
REMARK   40  A    between atoms: _94  and  _95
REMARK   41  A    between atoms: _94  and  _97
REMARK   42  A    between atoms: _100  and  _102
REMARK   43  A    between atoms: _102  and  _103
REMARK   44  A    between atoms: _102  and  _105
REMARK   45  A    between atoms: _105  and  _106
REMARK   46  A    between atoms: _109  and  _111
REMARK   47  A    between atoms: _111  and  _112
REMARK   48  A    between atoms: _111  and  _114
REMARK   49  A    between atoms: _114  and  _115
REMARK   50  A    between atoms: _115  and  _116
REMARK   51  A    between atoms: _116  and  _117
REMARK   52  A    between atoms: _117  and  _118
REMARK   53  A    between atoms: _122  and  _124
REMARK   54  A    between atoms: _124  and  _125
REMARK   55  A    between atoms: _124  and  _127
REMARK   56  A    between atoms: _127  and  _128
REMARK   57  A    between atoms: _128  and  _129
REMARK   58  A    between atoms: _131  and  _133
REMARK   59  A    between atoms: _133  and  _134
REMARK   60  A    between atoms: _133  and  _136
REMARK   61  A    between atoms: _136  and  _137
REMARK   62  A    between atoms: _140  and  _142
REMARK   63  A    between atoms: _142  and  _143
REMARK   64  A    between atoms: _145  and  _147
REMARK   65  A    between atoms: _147  and  _148
REMARK   66  A    between atoms: _150  and  _152
REMARK   67  A    between atoms: _152  and  _153
REMARK   68  A    between atoms: _152  and  _155
REMARK   69  A    between atoms: _155  and  _156
REMARK   70  A    between atoms: _159  and  _161
REMARK   71  A    between atoms: _161  and  _162
REMARK   72  A    between atoms: _164  and  _166
REMARK   73  A    between atoms: _166  and  _167
REMARK   74  A    between atoms: _169  and  _171
REMARK   75  A    between atoms: _171  and  _172
REMARK   76  A    between atoms: _171  and  _174
REMARK   77  A    between atoms: _174  and  _175
REMARK   78  A    between atoms: _181  and  _183
REMARK   79  A    between atoms: _183  and  _184
REMARK   80  A    between atoms: _183  and  _186
REMARK   81  A    between atoms: _186  and  _187
REMARK   82  A    between atoms: _190  and  _192
REMARK   83  A    between atoms: _192  and  _193
REMARK   84  A    between atoms: _192  and  _195
REMARK   85  A    between atoms: _198  and  _200
REMARK   86  A    between atoms: _200  and  _201
REMARK   87  A    between atoms: _200  and  _203
REMARK   88  A    between atoms: _203  and  _204
REMARK   89  A    between atoms: _204  and  _205
REMARK   90  A    between atoms: _210  and  _212
REMARK   91  A    between atoms: _212  and  _213
REMARK   92  A    between atoms: _212  and  _215
REMARK   93  A    between atoms: _215  and  _216
REMARK   94  A    between atoms: _220  and  _221
REMARK   95  A    between atoms: _226  and  _228
REMARK   96  A    between atoms: _228  and  _229
REMARK   97  A    between atoms: _228  and  _231
REMARK   98  A    between atoms: _231  and  _232
REMARK   99  A    between atoms: _236  and  _237
REMARK  100  A    between atoms: _242  and  _244
REMARK  101  A    between atoms: _244  and  _245
REMARK  102  A    between atoms: _244  and  _247
REMARK  103  A    between atoms: _247  and  _248
REMARK  104  A    between atoms: _254  and  _256
REMARK  105  A    between atoms: _256  and  _257
REMARK  106  A    between atoms: _256  and  _259
REMARK  107  A    between atoms: _259  and  _260
REMARK  108  A    between atoms: _265  and  _267
REMARK  109  A    between atoms: _267  and  _268
REMARK  110  A    between atoms: _267  and  _270
REMARK  111  A    between atoms: _273  and  _275
REMARK  112  A    between atoms: _275  and  _276
REMARK  113  A    between atoms: _275  and  _278
REMARK  114  A    between atoms: _278  and  _279
REMARK  115  A    between atoms: _282  and  _284
REMARK  116  A    between atoms: _284  and  _285
REMARK  117  A    between atoms: _287  and  _289
REMARK  118  A    between atoms: _289  and  _290
REMARK  119  A    between atoms: _289  and  _292
REMARK  120  A    between atoms: _292  and  _293
REMARK  121  A    between atoms: _293  and  _294
REMARK  122  A    between atoms: _294  and  _295
REMARK  123  A    between atoms: _304  and  _306
REMARK  124  A    between atoms: _306  and  _307
REMARK  125  A    between atoms: _306  and  _309
REMARK  126  A    between atoms: _309  and  _310
REMARK  127  A    between atoms: _315  and  _317
REMARK  128  A    between atoms: _317  and  _318
REMARK  129  A    between atoms: _317  and  _320
REMARK  130  A    between atoms: _320  and  _321
REMARK  131  A    between atoms: _321  and  _322
REMARK  132  A    between atoms: _322  and  _323
REMARK  133  A    between atoms: _332  and  _334
REMARK  134  A    between atoms: _334  and  _335
REMARK  135  A    between atoms: _334  and  _337
REMARK  136  A    between atoms: _337  and  _338
REMARK  137  A    between atoms: _341  and  _343
REMARK  138  A    between atoms: _343  and  _344
REMARK  139  A    between atoms: _343  and  _346
REMARK  140  A    between atoms: _346  and  _347
REMARK  141  A    between atoms: _350  and  _352
REMARK  142  A    between atoms: _352  and  _353
REMARK  143  A    between atoms: _352  and  _355
REMARK  144  A    between atoms: _355  and  _356
REMARK  145  A    between atoms: _359  and  _361
REMARK  146  A    between atoms: _361  and  _362
REMARK  147  A    between atoms: _361  and  _364
REMARK  148  A    between atoms: _364  and  _365
REMARK  149  A    between atoms: _368  and  _370
REMARK  150  A    between atoms: _370  and  _371
REMARK  151  A    between atoms: _373  and  _375
REMARK  152  A    between atoms: _375  and  _376
REMARK  153  A    between atoms: _379  and  _381
REMARK  154  A    between atoms: _381  and  _382
REMARK  155  A    between atoms: _381  and  _384
REMARK  156  A    between atoms: _384  and  _385
REMARK  157  A    between atoms: _388  and  _390
REMARK  158  A    between atoms: _390  and  _391
REMARK  159  A    between atoms: _390  and  _393
REMARK  160  A    between atoms: _393  and  _394
REMARK  161  A    between atoms: _397  and  _399
REMARK  162  A    between atoms: _399  and  _400
REMARK  163  A    between atoms: _399  and  _402
REMARK  164  A    between atoms: _402  and  _403
REMARK  165  A    between atoms: _406  and  _408
REMARK  166  A    between atoms: _408  and  _409
REMARK  167  A    between atoms: _408  and  _411
REMARK  168  A    between atoms: _414  and  _416
REMARK  169  A    between atoms: _416  and  _417
REMARK  170  A    between atoms: _416  and  _419
REMARK  171  A    between atoms: _419  and  _420
REMARK  172  A    between atoms: _423  and  _425
REMARK  173  A    between atoms: _425  and  _426
REMARK  174  A    between atoms: _425  and  _428
REMARK  175  A    between atoms: _428  and  _429
REMARK  176  A    between atoms: _429  and  _430
REMARK  177  A    between atoms: _430  and  _431
REMARK  178  A    between atoms: _431  and  _432
REMARK  179  A    between atoms: _436  and  _438
REMARK  180  A    between atoms: _438  and  _439
REMARK  181  A    between atoms: _438  and  _441
REMARK  182  A    between atoms: _441  and  _442
REMARK  183  A    between atoms: _442  and  _443
REMARK  184  A    between atoms: _445  and  _447
REMARK  185  A    between atoms: _447  and  _448
REMARK  186  A    between atoms: _447  and  _450
REMARK  187  A    between atoms: _450  and  _451
REMARK  188  A    between atoms: _454  and  _456
REMARK  189  A    between atoms: _456  and  _457
REMARK  190  A    between atoms: _459  and  _461
REMARK  191  A    between atoms: _461  and  _462
REMARK  192  A    between atoms: _464  and  _466
REMARK  193  A    between atoms: _466  and  _467
REMARK  194  A    between atoms: _466  and  _469
REMARK  195  A    between atoms: _469  and  _470
REMARK  196  A    between atoms: _473  and  _475
REMARK  197  A    between atoms: _475  and  _476
REMARK  198  A    between atoms: _478  and  _480
REMARK  199  A    between atoms: _480  and  _481
REMARK  200  A    between atoms: _483  and  _485
REMARK  201  A    between atoms: _485  and  _486
REMARK  202  A    between atoms: _485  and  _488
REMARK  203  A    between atoms: _488  and  _489
REMARK  204  A    between atoms: _495  and  _497
REMARK  205  A    between atoms: _497  and  _498
REMARK  206  A    between atoms: _497  and  _500
REMARK  207  A    between atoms: _500  and  _501
REMARK  208  A    between atoms: _504  and  _506
REMARK  209  A    between atoms: _506  and  _507
REMARK  210  A    between atoms: _506  and  _509
REMARK  211  A    between atoms: _509  and  _510
REMARK  212  A    between atoms: _510  and  _511
REMARK  213  A    between atoms: _516  and  _518
REMARK  214  A    between atoms: _518  and  _519
REMARK  215  A    between atoms: _518  and  _521
REMARK  216  A    between atoms: _521  and  _522
REMARK  217  A    between atoms: _526  and  _527
REMARK  218  A    between atoms: _532  and  _534
REMARK  219  A    between atoms: _534  and  _535
REMARK  220  A    between atoms: _534  and  _537
REMARK  221  A    between atoms: _537  and  _538
REMARK  222  A    between atoms: _542  and  _543
REMARK  223  A    between atoms: _548  and  _550
REMARK  224  A    between atoms: _550  and  _551
REMARK  225  A    between atoms: _550  and  _553
REMARK  226  A    between atoms: _553  and  _554
REMARK  227  A    between atoms: _560  and  _562
REMARK  228  A    between atoms: _562  and  _563
REMARK  229  A    between atoms: _562  and  _565
REMARK  230  A    between atoms: _565  and  _566
REMARK  231  A    between atoms: _571  and  _573
REMARK  232  A    between atoms: _573  and  _574
REMARK  233  A    between atoms: _573  and  _576
REMARK  234  A    between atoms: _579  and  _581
REMARK  235  A    between atoms: _581  and  _582
REMARK  236  A    between atoms: _581  and  _584
REMARK  237  A    between atoms: _584  and  _585
REMARK  238  A    between atoms: _588  and  _590
REMARK  239  A    between atoms: _590  and  _591
REMARK  240  A    between atoms: _593  and  _595
REMARK  241  A    between atoms: _595  and  _596
REMARK  242  A    between atoms: _595  and  _598
REMARK  243  A    between atoms: _598  and  _599
REMARK  244  A    between atoms: _599  and  _600
REMARK  245  A    between atoms: _600  and  _601
REMARK  246  A    between atoms: _610  and  _612
REMARK  247  A    between atoms: _612  and  _613
REMARK  248  A    between atoms: _612  and  _615
REMARK  249  A    between atoms: _615  and  _616
REMARK                            x       y       z     vdW  Elec       q    Type
REMARK                         _______ _______ _______ _____ _____    ______ ____
ROOT
ATOM      1  C   ASN A   5     -18.295  14.640  23.505  0.00  0.00    +0.241 C 
ATOM      2  O   ASN A   5     -18.875  15.232  24.405  0.00  0.00    -0.273 OA
ATOM      3  N   VAL A   6     -17.278  15.151  22.833  0.00  0.00    -0.297 N 
ATOM      4  H   VAL A   6     -16.801  14.606  22.086  0.00  0.00    +0.150 HD
ENDROOT
BRANCH   1   5
ATOM      5  CA  ASN A   5     -18.728  13.253  23.139  0.00  0.00    +0.158 C 
BRANCH   5   8
ATOM      6  C   PHE A   4     -17.611  12.029  24.906  0.00  0.00    +0.241 C 
ATOM      7  O   PHE A   4     -16.522  12.248  24.412  0.00  0.00    -0.273 OA
ATOM      8  N   ASN A   5     -18.751  12.434  24.360  0.00  0.00    -0.297 N 
ATOM      9  H   ASN A   5     -19.659  12.173  24.795  0.00  0.00    +0.150 HD
BRANCH   6  10
ATOM     10  CA  PHE A   4     -17.731  11.242  26.182  0.00  0.00    +0.153 C 
BRANCH  10  13
ATOM     11  C   PRO A   3     -16.765   9.177  26.935  0.00  0.00    +0.241 C 
ATOM     12  O   PRO A   3     -17.795   8.883  27.513  0.00  0.00    -0.273 OA
ATOM     13  N   PHE A   4     -16.632  10.299  26.232  0.00  0.00    -0.297 N 
ATOM     14  H   PHE A   4     -15.747  10.497  25.723  0.00  0.00    +0.150 HD
BRANCH  11  17
ATOM     15  C   THR A   2     -14.712   8.205  24.763  0.00  0.00    +0.246 C 
ATOM     16  N   PRO A   3     -14.500   8.507  26.050  0.00  0.00    -0.272 N 
ATOM     17  CA  PRO A   3     -15.544   8.291  27.066  0.00  0.00    +0.152 C 
ATOM     18  CB  PRO A   3     -14.845   8.658  28.390  0.00  0.00    +0.031 C 
ATOM     19  CG  PRO A   3     -13.348   8.687  28.110  0.00  0.00    +0.024 C 
ATOM     20  CD  PRO A   3     -13.255   9.033  26.630  0.00  0.00    +0.094 C 
ATOM     21  O   THR A   2     -15.675   7.584  24.353  0.00  0.00    -0.273 OA
BRANCH  15  22
ATOM     22  CA  THR A   2     -13.654   8.680  23.793  0.00  0.00    +0.176 C 
BRANCH  22  25
ATOM     23  C   PRO A   1     -12.775   6.733  22.707  0.00  0.00    +0.239 C 
ATOM     24  O   PRO A   1     -11.896   6.663  23.544  0.00  0.00    -0.274 OA
ATOM     25  N   THR A   2     -13.644   7.730  22.691  0.00  0.00    -0.295 N 
ATOM     26  H   THR A   2     -14.312   7.834  21.901  0.00  0.00    +0.150 HD
BRANCH  23  28
ATOM     27  N   PRO A   1     -12.661   6.134  20.257  0.00  0.00    -0.210 NA
ATOM     28  CA  PRO A   1     -12.948   5.669  21.618  0.00  0.00    +0.149 C 
ATOM     29  CB  PRO A   1     -11.944   4.516  21.718  0.00  0.00    +0.028 C 
ATOM     30  CG  PRO A   1     -10.738   4.970  20.905  0.00  0.00    +0.021 C 
ATOM     31  CD  PRO A   1     -11.397   5.649  19.723  0.00  0.00    +0.089 C 
ENDBRANCH  23  28
ENDBRANCH  22  25
BRANCH  22  32
ATOM     32  CB  THR A   2     -13.970  10.076  23.208  0.00  0.00    +0.137 C 
ATOM     33  CG2 THR A   2     -15.245  10.058  22.363  0.00  0.00    +0.034 C 
BRANCH  32  34
ATOM     34  OG1 THR A   2     -14.031  11.083  24.242  0.00  0.00    -0.382 OA
ATOM     35  HG1 THR A   2     -14.741  10.846  24.890  0.00  0.00    +0.210 HD
ENDBRANCH  32  34
ENDBRANCH  22  32
ENDBRANCH  15  22
ENDBRANCH  11  17
ENDBRANCH  10  13
BRANCH  10  36
ATOM     36  CB  PHE A   4     -17.680  12.193  27.396  0.00  0.00    +0.055 C 
BRANCH  36  37
ATOM     37  CG  PHE A   4     -19.105  12.579  27.740  0.00  0.00    -0.020 A 
ATOM     38  CD2 PHE A   4     -19.895  11.712  28.540  0.00  0.00    -0.004 A 
ATOM     39  CE2 PHE A   4     -21.251  12.033  28.811  0.00  0.00    -0.000 A 
ATOM     40  CZ  PHE A   4     -21.820  13.214  28.283  0.00  0.00    -0.000 A 
ATOM     41  CE1 PHE A   4     -21.038  14.084  27.490  0.00  0.00    -0.000 A 
ATOM     42  CD1 PHE A   4     -19.680  13.771  27.223  0.00  0.00    -0.004 A 
ENDBRANCH  36  37
ENDBRANCH  10  36
ENDBRANCH   6  10
ENDBRANCH   5   8
BRANCH   5  43
ATOM     43  CB  ASN A   5     -20.144  13.391  22.533  0.00  0.00    +0.114 C 
BRANCH  43  44
ATOM     44  CG  ASN A   5     -20.659  12.067  22.039  0.00  0.00    +0.222 C 
ATOM     45  ND2 ASN A   5     -21.849  11.744  22.519  0.00  0.00    -0.329 N 
ATOM     46 HD21 ASN A   5     -22.358  12.408  23.137  0.00  0.00    +0.145 HD
ATOM     47 HD22 ASN A   5     -22.275  10.826  22.278  0.00  0.00    +0.145 HD
ATOM     48  OD1 ASN A   5     -20.016  11.327  21.309  0.00  0.00    -0.275 OA
ENDBRANCH  43  44
ENDBRANCH   5  43
ENDBRANCH   1   5
BRANCH   3  49
ATOM     49  CA  VAL A   6     -16.844  16.504  23.171  0.00  0.00    +0.149 C 
BRANCH  49  50
ATOM     50  C   VAL A   6     -16.858  17.386  21.917  0.00  0.00    +0.241 C 
ATOM     51  N   ILE A   7     -17.484  18.573  22.051  0.00  0.00    -0.297 N 
ATOM     52  H   ILE A   7     -18.005  18.777  22.928  0.00  0.00    +0.150 HD
ATOM     53  O   VAL A   6     -16.364  16.986  20.863  0.00  0.00    -0.273 OA
BRANCH  51  54
ATOM     54  CA  ILE A   7     -17.447  19.590  20.981  0.00  0.00    +0.149 C 
BRANCH  54  55
ATOM     55  C   ILE A   7     -16.285  20.530  21.223  0.00  0.00    +0.241 C 
ATOM     56  O   ILE A   7     -16.255  21.188  22.246  0.00  0.00    -0.273 OA
ATOM     57  N   GLY A   8     -15.352  20.575  20.291  0.00  0.00    -0.295 N 
ATOM     58  H   GLY A   8     -15.468  20.048  19.402  0.00  0.00    +0.150 HD
BRANCH  57  59
ATOM     59  CA  GLY A   8     -14.159  21.372  20.525  0.00  0.00    +0.176 C 
BRANCH  59  60
ATOM     60  C   GLY A   8     -14.151  22.674  19.755  0.00  0.00    +0.243 C 
ATOM     61  N   ARG A   9     -13.015  23.344  19.813  0.00  0.00    -0.297 N 
ATOM     62  H   ARG A   9     -12.139  22.907  20.165  0.00  0.00    +0.150 HD
ATOM     63  O   GLY A   8     -15.121  23.097  19.121  0.00  0.00    -0.273 OA
BRANCH  61  64
ATOM     64  CA  ARG A   9     -13.053  24.729  19.357  0.00  0.00    +0.149 C 
BRANCH  64  65
ATOM     65  C   ARG A   9     -13.334  24.909  17.902  0.00  0.00    +0.241 C 
ATOM     66  O   ARG A   9     -13.896  25.915  17.493  0.00  0.00    -0.273 OA
ATOM     67  N   ASN A  10     -12.993  23.878  17.143  0.00  0.00    -0.298 N 
ATOM     68  H   ASN A  10     -12.475  23.071  17.546  0.00  0.00    +0.150 HD
BRANCH  67  69
ATOM     69  CA  ASN A  10     -13.358  23.897  15.730  0.00  0.00    +0.146 C 
BRANCH  69  70
ATOM     70  C   ASN A  10     -14.836  24.104  15.422  0.00  0.00    +0.227 C 
ATOM     71  O   ASN A  10     -15.195  24.793  14.486  0.00  0.00    -0.286 OA
ENDBRANCH  69  70
BRANCH  69  72
ATOM     72  CB  ASN A  10     -12.775  22.665  14.991  0.00  0.00    +0.112 C 
BRANCH  72  73
ATOM     73  CG  ASN A  10     -13.570  21.417  15.259  0.00  0.00    +0.222 C 
ATOM     74  OD1 ASN A  10     -13.776  21.003  16.387  0.00  0.00    -0.275 OA
ATOM     75  ND2 ASN A  10     -14.052  20.830  14.185  0.00  0.00    -0.329 N 
ATOM     76 HD21 ASN A  10     -14.636  19.975  14.278  0.00  0.00    +0.145 HD
ATOM     77 HD22 ASN A  10     -13.849  21.221  13.243  0.00  0.00    +0.145 HD
ENDBRANCH  72  73
ENDBRANCH  69  72
ENDBRANCH  67  69
ENDBRANCH  64  65
BRANCH  64  78
ATOM     78  CB  ARG A   9     -11.767  25.479  19.680  0.00  0.00    +0.033 C 
BRANCH  78  79
ATOM     79  CG  ARG A   9     -11.491  25.698  21.186  0.00  0.00    +0.045 C 
BRANCH  79  80
ATOM     80  CD  ARG A   9     -10.232  26.560  21.398  0.00  0.00    +0.174 C 
BRANCH  80  81
ATOM     81  NE  ARG A   9      -8.998  25.920  20.931  0.00  0.00    -0.265 N 
ATOM     82  HE  ARG A   9      -8.610  25.133  21.490  0.00  0.00    +0.259 HD
ATOM     83  CZ  ARG A   9      -8.341  26.295  19.820  0.00  0.00    +0.342 C 
ATOM     84  NH2 ARG A   9      -7.218  25.670  19.503  0.00  0.00    -0.292 N 
ATOM     85 HH21 ARG A   9      -6.860  24.905  20.109  0.00  0.00    +0.255 HD
ATOM     86 HH22 ARG A   9      -6.694  25.944  18.648  0.00  0.00    +0.255 HD
ATOM     87  NH1 ARG A   9      -8.773  27.260  19.020  0.00  0.00    -0.292 N 
ATOM     88 HH11 ARG A   9      -9.656  27.763  19.241  0.00  0.00    +0.255 HD
ATOM     89 HH12 ARG A   9      -8.229  27.514  18.171  0.00  0.00    +0.255 HD
ENDBRANCH  80  81
ENDBRANCH  79  80
ENDBRANCH  78  79
ENDBRANCH  64  78
ENDBRANCH  61  64
ENDBRANCH  59  60
ENDBRANCH  57  59
ENDBRANCH  54  55
BRANCH  54  90
ATOM     90  CB  ILE A   7     -18.748  20.434  20.968  0.00  0.00    +0.027 C 
ATOM     91  CG2 ILE A   7     -18.740  21.409  19.799  0.00  0.00    +0.002 C 
BRANCH  90  92
ATOM     92  CG1 ILE A   7     -20.035  19.619  20.915  0.00  0.00    +0.002 C 
ATOM     93  CD1 ILE A   7     -20.054  18.587  19.794  0.00  0.00    +0.000 C 
ENDBRANCH  90  92
ENDBRANCH  54  90
ENDBRANCH  51  54
ENDBRANCH  49  50
BRANCH  49  94
ATOM     94  CB  VAL A   6     -15.455  16.502  23.907  0.00  0.00    +0.027 C 
ATOM     95  CG2 VAL A   6     -15.454  15.592  25.143  0.00  0.00    +0.002 C 
ATOM     96  CG1 VAL A   6     -14.290  16.088  23.058  0.00  0.00    +0.002 C 
ENDBRANCH  49  94
ENDBRANCH   3  49
TORSDOF 33
REMARK  Name = ../refined-set-2016/1bwb/1bwb_pocket.pdb
REMARK  249 active torsions:
REMARK  status: ('A' for Active; 'I' for Inactive)
REMARK    1  A    between atoms: _1  and  _3
REMARK    2  A    between atoms: _3  and  _4
REMARK    3  A    between atoms: _3  and  _6
REMARK    4  A    between atoms: _6  and  _7
REMARK    5  A    between atoms: _7  and  _8
REMARK    6  A    between atoms: _8  and  _9
REMARK    7  A    between atoms: _18  and  _20
REMARK    8  A    between atoms: _20  and  _21
REMARK    9  A    between atoms: _20  and  _23
REMARK   10  A    between atoms: _23  and  _24
REMARK   11  A    between atoms: _27  and  _29
REMARK   12  A    between atoms: _29  and  _30
REMARK   13  A    between atoms: _29  and  _32
REMARK   14  A    between atoms: _32  and  _33
REMARK   15  A    between atoms: _36  and  _38
REMARK   16  A    between atoms: _38  and  _39
REMARK   17  A    between atoms: _38  and  _41
REMARK   18  A    between atoms: _41  and  _42
REMARK   19  A    between atoms: _45  and  _47
REMARK   20  A    between atoms: _47  and  _48
REMARK   21  A    between atoms: _47  and  _50
REMARK   22  A    between atoms: _50  and  _51
REMARK   23  A    between atoms: _54  and  _56
REMARK   24  A    between atoms: _56  and  _57
REMARK   25  A    between atoms: _59  and  _61
REMARK   26  A    between atoms: _61  and  _62
REMARK   27  A    between atoms: _65  and  _67
REMARK   28  A    between atoms: _67  and  _68
REMARK   29  A    between atoms: _67  and  _70
REMARK   30  A    between atoms: _70  and  _71
REMARK   31  A    between atoms: _74  and  _76
REMARK   32  A    between atoms: _76  and  _77
REMARK   33  A    between atoms: _76  and  _79
REMARK   34  A    between atoms: _79  and  _80
REMARK   35  A    between atoms: _83  and  _85
REMARK   36  A    between atoms: _85  and  _86
REMARK   37  A    between atoms: _85  and  _88
REMARK   38  A    between atoms: _88  and  _89
REMARK   39  A    between atoms: _92  and  _94
REMARK   40  A    between atoms: _94  and  _95
REMARK   41  A    between atoms: _94  and  _97
REMARK   42  A    between atoms: _100  and  _102
REMARK   43  A    between atoms: _102  and  _103
REMARK   44  A    between atoms: _102  and  _105
REMARK   45  A    between atoms: _105  and  _106
REMARK   46  A    between atoms: _109  and  _111
REMARK   47  A    between atoms: _111  and  _112
REMARK   48  A    between atoms: _111  and  _114
REMARK   49  A    between atoms: _114  and  _115
REMARK   50  A    between atoms: _115  and  _116
REMARK   51  A    between atoms: _116  and  _117
REMARK   52  A    between atoms: _117  and  _118
REMARK   53  A    between atoms: _122  and  _124
REMARK   54  A    between atoms: _124  and  _125
REMARK   55  A    between atoms: _124  and  _127
REMARK   56  A    between atoms: _127  and  _128
REMARK   57  A    between atoms: _128  and  _129
REMARK   58  A    between atoms: _131  and  _133
REMARK   59  A    between atoms: _133  and  _134
REMARK   60  A    between atoms: _133  and  _136
REMARK   61  A    between atoms: _136  and  _137
REMARK   62  A    between atoms: _140  and  _142
REMARK   63  A    between atoms: _142  and  _143
REMARK   64  A    between atoms: _145  and  _147
REMARK   65  A    between atoms: _147  and  _148
REMARK   66  A    between atoms: _150  and  _152
REMARK   67  A    between atoms: _152  and  _153
REMARK   68  A    between atoms: _152  and  _155
REMARK   69  A    between atoms: _155  and  _156
REMARK   70  A    between atoms: _159  and  _161
REMARK   71  A    between atoms: _161  and  _162
REMARK   72  A    between atoms: _164  and  _166
REMARK   73  A    between atoms: _166  and  _167
REMARK   74  A    between atoms: _169  and  _171
REMARK   75  A    between atoms: _171  and  _172
REMARK   76  A    between atoms: _171  and  _174
REMARK   77  A    between atoms: _174  and  _175
REMARK   78  A    between atoms: _181  and  _183
REMARK   79  A    between atoms: _183  and  _184
REMARK   80  A    between atoms: _183  and  _186
REMARK   81  A    between atoms: _186  and  _187
REMARK   82  A    between atoms: _190  and  _192
REMARK   83  A    between atoms: _192  and  _193
REMARK   84  A    between atoms: _192  and  _195
REMARK   85  A    between atoms: _198  and  _200
REMARK   86  A    between atoms: _200  and  _201
REMARK   87  A    between atoms: _200  and  _203
REMARK   88  A    between atoms: _203  and  _204
REMARK   89  A    between atoms: _204  and  _205
REMARK   90  A    between atoms: _210  and  _212
REMARK   91  A    between atoms: _212  and  _213
REMARK   92  A    between atoms: _212  and  _215
REMARK   93  A    between atoms: _215  and  _216
REMARK   94  A    between atoms: _220  and  _221
REMARK   95  A    between atoms: _226  and  _228
REMARK   96  A    between atoms: _228  and  _229
REMARK   97  A    between atoms: _228  and  _231
REMARK   98  A    between atoms: _231  and  _232
REMARK   99  A    between atoms: _236  and  _237
REMARK  100  A    between atoms: _242  and  _244
REMARK  101  A    between atoms: _244  and  _245
REMARK  102  A    between atoms: _244  and  _247
REMARK  103  A    between atoms: _247  and  _248
REMARK  104  A    between atoms: _254  and  _256
REMARK  105  A    between atoms: _256  and  _257
REMARK  106  A    between atoms: _256  and  _259
REMARK  107  A    between atoms: _259  and  _260
REMARK  108  A    between atoms: _265  and  _267
REMARK  109  A    between atoms: _267  and  _268
REMARK  110  A    between atoms: _267  and  _270
REMARK  111  A    between atoms: _273  and  _275
REMARK  112  A    between atoms: _275  and  _276
REMARK  113  A    between atoms: _275  and  _278
REMARK  114  A    between atoms: _278  and  _279
REMARK  115  A    between atoms: _282  and  _284
REMARK  116  A    between atoms: _284  and  _285
REMARK  117  A    between atoms: _287  and  _289
REMARK  118  A    between atoms: _289  and  _290
REMARK  119  A    between atoms: _289  and  _292
REMARK  120  A    between atoms: _292  and  _293
REMARK  121  A    between atoms: _293  and  _294
REMARK  122  A    between atoms: _294  and  _295
REMARK  123  A    between atoms: _304  and  _306
REMARK  124  A    between atoms: _306  and  _307
REMARK  125  A    between atoms: _306  and  _309
REMARK  126  A    between atoms: _309  and  _310
REMARK  127  A    between atoms: _315  and  _317
REMARK  128  A    between atoms: _317  and  _318
REMARK  129  A    between atoms: _317  and  _320
REMARK  130  A    between atoms: _320  and  _321
REMARK  131  A    between atoms: _321  and  _322
REMARK  132  A    between atoms: _322  and  _323
REMARK  133  A    between atoms: _332  and  _334
REMARK  134  A    between atoms: _334  and  _335
REMARK  135  A    between atoms: _334  and  _337
REMARK  136  A    between atoms: _337  and  _338
REMARK  137  A    between atoms: _341  and  _343
REMARK  138  A    between atoms: _343  and  _344
REMARK  139  A    between atoms: _343  and  _346
REMARK  140  A    between atoms: _346  and  _347
REMARK  141  A    between atoms: _350  and  _352
REMARK  142  A    between atoms: _352  and  _353
REMARK  143  A    between atoms: _352  and  _355
REMARK  144  A    between atoms: _355  and  _356
REMARK  145  A    between atoms: _359  and  _361
REMARK  146  A    between atoms: _361  and  _362
REMARK  147  A    between atoms: _361  and  _364
REMARK  148  A    between atoms: _364  and  _365
REMARK  149  A    between atoms: _368  and  _370
REMARK  150  A    between atoms: _370  and  _371
REMARK  151  A    between atoms: _373  and  _375
REMARK  152  A    between atoms: _375  and  _376
REMARK  153  A    between atoms: _379  and  _381
REMARK  154  A    between atoms: _381  and  _382
REMARK  155  A    between atoms: _381  and  _384
REMARK  156  A    between atoms: _384  and  _385
REMARK  157  A    between atoms: _388  and  _390
REMARK  158  A    between atoms: _390  and  _391
REMARK  159  A    between atoms: _390  and  _393
REMARK  160  A    between atoms: _393  and  _394
REMARK  161  A    between atoms: _397  and  _399
REMARK  162  A    between atoms: _399  and  _400
REMARK  163  A    between atoms: _399  and  _402
REMARK  164  A    between atoms: _402  and  _403
REMARK  165  A    between atoms: _406  and  _408
REMARK  166  A    between atoms: _408  and  _409
REMARK  167  A    between atoms: _408  and  _411
REMARK  168  A    between atoms: _414  and  _416
REMARK  169  A    between atoms: _416  and  _417
REMARK  170  A    between atoms: _416  and  _419
REMARK  171  A    between atoms: _419  and  _420
REMARK  172  A    between atoms: _423  and  _425
REMARK  173  A    between atoms: _425  and  _426
REMARK  174  A    between atoms: _425  and  _428
REMARK  175  A    between atoms: _428  and  _429
REMARK  176  A    between atoms: _429  and  _430
REMARK  177  A    between atoms: _430  and  _431
REMARK  178  A    between atoms: _431  and  _432
REMARK  179  A    between atoms: _436  and  _438
REMARK  180  A    between atoms: _438  and  _439
REMARK  181  A    between atoms: _438  and  _441
REMARK  182  A    between atoms: _441  and  _442
REMARK  183  A    between atoms: _442  and  _443
REMARK  184  A    between atoms: _445  and  _447
REMARK  185  A    between atoms: _447  and  _448
REMARK  186  A    between atoms: _447  and  _450
REMARK  187  A    between atoms: _450  and  _451
REMARK  188  A    between atoms: _454  and  _456
REMARK  189  A    between atoms: _456  and  _457
REMARK  190  A    between atoms: _459  and  _461
REMARK  191  A    between atoms: _461  and  _462
REMARK  192  A    between atoms: _464  and  _466
REMARK  193  A    between atoms: _466  and  _467
REMARK  194  A    between atoms: _466  and  _469
REMARK  195  A    between atoms: _469  and  _470
REMARK  196  A    between atoms: _473  and  _475
REMARK  197  A    between atoms: _475  and  _476
REMARK  198  A    between atoms: _478  and  _480
REMARK  199  A    between atoms: _480  and  _481
REMARK  200  A    between atoms: _483  and  _485
REMARK  201  A    between atoms: _485  and  _486
REMARK  202  A    between atoms: _485  and  _488
REMARK  203  A    between atoms: _488  and  _489
REMARK  204  A    between atoms: _495  and  _497
REMARK  205  A    between atoms: _497  and  _498
REMARK  206  A    between atoms: _497  and  _500
REMARK  207  A    between atoms: _500  and  _501
REMARK  208  A    between atoms: _504  and  _506
REMARK  209  A    between atoms: _506  and  _507
REMARK  210  A    between atoms: _506  and  _509
REMARK  211  A    between atoms: _509  and  _510
REMARK  212  A    between atoms: _510  and  _511
REMARK  213  A    between atoms: _516  and  _518
REMARK  214  A    between atoms: _518  and  _519
REMARK  215  A    between atoms: _518  and  _521
REMARK  216  A    between atoms: _521  and  _522
REMARK  217  A    between atoms: _526  and  _527
REMARK  218  A    between atoms: _532  and  _534
REMARK  219  A    between atoms: _534  and  _535
REMARK  220  A    between atoms: _534  and  _537
REMARK  221  A    between atoms: _537  and  _538
REMARK  222  A    between atoms: _542  and  _543
REMARK  223  A    between atoms: _548  and  _550
REMARK  224  A    between atoms: _550  and  _551
REMARK  225  A    between atoms: _550  and  _553
REMARK  226  A    between atoms: _553  and  _554
REMARK  227  A    between atoms: _560  and  _562
REMARK  228  A    between atoms: _562  and  _563
REMARK  229  A    between atoms: _562  and  _565
REMARK  230  A    between atoms: _565  and  _566
REMARK  231  A    between atoms: _571  and  _573
REMARK  232  A    between atoms: _573  and  _574
REMARK  233  A    between atoms: _573  and  _576
REMARK  234  A    between atoms: _579  and  _581
REMARK  235  A    between atoms: _581  and  _582
REMARK  236  A    between atoms: _581  and  _584
REMARK  237  A    between atoms: _584  and  _585
REMARK  238  A    between atoms: _588  and  _590
REMARK  239  A    between atoms: _590  and  _591
REMARK  240  A    between atoms: _593  and  _595
REMARK  241  A    between atoms: _595  and  _596
REMARK  242  A    between atoms: _595  and  _598
REMARK  243  A    between atoms: _598  and  _599
REMARK  244  A    between atoms: _599  and  _600
REMARK  245  A    between atoms: _600  and  _601
REMARK  246  A    between atoms: _610  and  _612
REMARK  247  A    between atoms: _612  and  _613
REMARK  248  A    between atoms: _612  and  _615
REMARK  249  A    between atoms: _615  and  _616
REMARK                            x       y       z     vdW  Elec       q    Type
REMARK                         _______ _______ _______ _____ _____    ______ ____
ROOT
ATOM      1  O   HOH     1      -9.048  19.766  41.073  0.00  0.00    +0.000 OA
ENDROOT
TORSDOF 0
REMARK  Name = ../refined-set-2016/1bwb/1bwb_pocket.pdb
REMARK  249 active torsions:
REMARK  status: ('A' for Active; 'I' for Inactive)
REMARK    1  A    between atoms: _1  and  _3
REMARK    2  A    between atoms: _3  and  _4
REMARK    3  A    between atoms: _3  and  _6
REMARK    4  A    between atoms: _6  and  _7
REMARK    5  A    between atoms: _7  and  _8
REMARK    6  A    between atoms: _8  and  _9
REMARK    7  A    between atoms: _18  and  _20
REMARK    8  A    between atoms: _20  and  _21
REMARK    9  A    between atoms: _20  and  _23
REMARK   10  A    between atoms: _23  and  _24
REMARK   11  A    between atoms: _27  and  _29
REMARK   12  A    between atoms: _29  and  _30
REMARK   13  A    between atoms: _29  and  _32
REMARK   14  A    between atoms: _32  and  _33
REMARK   15  A    between atoms: _36  and  _38
REMARK   16  A    between atoms: _38  and  _39
REMARK   17  A    between atoms: _38  and  _41
REMARK   18  A    between atoms: _41  and  _42
REMARK   19  A    between atoms: _45  and  _47
REMARK   20  A    between atoms: _47  and  _48
REMARK   21  A    between atoms: _47  and  _50
REMARK   22  A    between atoms: _50  and  _51
REMARK   23  A    between atoms: _54  and  _56
REMARK   24  A    between atoms: _56  and  _57
REMARK   25  A    between atoms: _59  and  _61
REMARK   26  A    between atoms: _61  and  _62
REMARK   27  A    between atoms: _65  and  _67
REMARK   28  A    between atoms: _67  and  _68
REMARK   29  A    between atoms: _67  and  _70
REMARK   30  A    between atoms: _70  and  _71
REMARK   31  A    between atoms: _74  and  _76
REMARK   32  A    between atoms: _76  and  _77
REMARK   33  A    between atoms: _76  and  _79
REMARK   34  A    between atoms: _79  and  _80
REMARK   35  A    between atoms: _83  and  _85
REMARK   36  A    between atoms: _85  and  _86
REMARK   37  A    between atoms: _85  and  _88
REMARK   38  A    between atoms: _88  and  _89
REMARK   39  A    between atoms: _92  and  _94
REMARK   40  A    between atoms: _94  and  _95
REMARK   41  A    between atoms: _94  and  _97
REMARK   42  A    between atoms: _100  and  _102
REMARK   43  A    between atoms: _102  and  _103
REMARK   44  A    between atoms: _102  and  _105
REMARK   45  A    between atoms: _105  and  _106
REMARK   46  A    between atoms: _109  and  _111
REMARK   47  A    between atoms: _111  and  _112
REMARK   48  A    between atoms: _111  and  _114
REMARK   49  A    between atoms: _114  and  _115
REMARK   50  A    between atoms: _115  and  _116
REMARK   51  A    between atoms: _116  and  _117
REMARK   52  A    between atoms: _117  and  _118
REMARK   53  A    between atoms: _122  and  _124
REMARK   54  A    between atoms: _124  and  _125
REMARK   55  A    between atoms: _124  and  _127
REMARK   56  A    between atoms: _127  and  _128
REMARK   57  A    between atoms: _128  and  _129
REMARK   58  A    between atoms: _131  and  _133
REMARK   59  A    between atoms: _133  and  _134
REMARK   60  A    between atoms: _133  and  _136
REMARK   61  A    between atoms: _136  and  _137
REMARK   62  A    between atoms: _140  and  _142
REMARK   63  A    between atoms: _142  and  _143
REMARK   64  A    between atoms: _145  and  _147
REMARK   65  A    between atoms: _147  and  _148
REMARK   66  A    between atoms: _150  and  _152
REMARK   67  A    between atoms: _152  and  _153
REMARK   68  A    between atoms: _152  and  _155
REMARK   69  A    between atoms: _155  and  _156
REMARK   70  A    between atoms: _159  and  _161
REMARK   71  A    between atoms: _161  and  _162
REMARK   72  A    between atoms: _164  and  _166
REMARK   73  A    between atoms: _166  and  _167
REMARK   74  A    between atoms: _169  and  _171
REMARK   75  A    between atoms: _171  and  _172
REMARK   76  A    between atoms: _171  and  _174
REMARK   77  A    between atoms: _174  and  _175
REMARK   78  A    between atoms: _181  and  _183
REMARK   79  A    between atoms: _183  and  _184
REMARK   80  A    between atoms: _183  and  _186
REMARK   81  A    between atoms: _186  and  _187
REMARK   82  A    between atoms: _190  and  _192
REMARK   83  A    between atoms: _192  and  _193
REMARK   84  A    between atoms: _192  and  _195
REMARK   85  A    between atoms: _198  and  _200
REMARK   86  A    between atoms: _200  and  _201
REMARK   87  A    between atoms: _200  and  _203
REMARK   88  A    between atoms: _203  and  _204
REMARK   89  A    between atoms: _204  and  _205
REMARK   90  A    between atoms: _210  and  _212
REMARK   91  A    between atoms: _212  and  _213
REMARK   92  A    between atoms: _212  and  _215
REMARK   93  A    between atoms: _215  and  _216
REMARK   94  A    between atoms: _220  and  _221
REMARK   95  A    between atoms: _226  and  _228
REMARK   96  A    between atoms: _228  and  _229
REMARK   97  A    between atoms: _228  and  _231
REMARK   98  A    between atoms: _231  and  _232
REMARK   99  A    between atoms: _236  and  _237
REMARK  100  A    between atoms: _242  and  _244
REMARK  101  A    between atoms: _244  and  _245
REMARK  102  A    between atoms: _244  and  _247
REMARK  103  A    between atoms: _247  and  _248
REMARK  104  A    between atoms: _254  and  _256
REMARK  105  A    between atoms: _256  and  _257
REMARK  106  A    between atoms: _256  and  _259
REMARK  107  A    between atoms: _259  and  _260
REMARK  108  A    between atoms: _265  and  _267
REMARK  109  A    between atoms: _267  and  _268
REMARK  110  A    between atoms: _267  and  _270
REMARK  111  A    between atoms: _273  and  _275
REMARK  112  A    between atoms: _275  and  _276
REMARK  113  A    between atoms: _275  and  _278
REMARK  114  A    between atoms: _278  and  _279
REMARK  115  A    between atoms: _282  and  _284
REMARK  116  A    between atoms: _284  and  _285
REMARK  117  A    between atoms: _287  and  _289
REMARK  118  A    between atoms: _289  and  _290
REMARK  119  A    between atoms: _289  and  _292
REMARK  120  A    between atoms: _292  and  _293
REMARK  121  A    between atoms: _293  and  _294
REMARK  122  A    between atoms: _294  and  _295
REMARK  123  A    between atoms: _304  and  _306
REMARK  124  A    between atoms: _306  and  _307
REMARK  125  A    between atoms: _306  and  _309
REMARK  126  A    between atoms: _309  and  _310
REMARK  127  A    between atoms: _315  and  _317
REMARK  128  A    between atoms: _317  and  _318
REMARK  129  A    between atoms: _317  and  _320
REMARK  130  A    between atoms: _320  and  _321
REMARK  131  A    between atoms: _321  and  _322
REMARK  132  A    between atoms: _322  and  _323
REMARK  133  A    between atoms: _332  and  _334
REMARK  134  A    between atoms: _334  and  _335
REMARK  135  A    between atoms: _334  and  _337
REMARK  136  A    between atoms: _337  and  _338
REMARK  137  A    between atoms: _341  and  _343
REMARK  138  A    between atoms: _343  and  _344
REMARK  139  A    between atoms: _343  and  _346
REMARK  140  A    between atoms: _346  and  _347
REMARK  141  A    between atoms: _350  and  _352
REMARK  142  A    between atoms: _352  and  _353
REMARK  143  A    between atoms: _352  and  _355
REMARK  144  A    between atoms: _355  and  _356
REMARK  145  A    between atoms: _359  and  _361
REMARK  146  A    between atoms: _361  and  _362
REMARK  147  A    between atoms: _361  and  _364
REMARK  148  A    between atoms: _364  and  _365
REMARK  149  A    between atoms: _368  and  _370
REMARK  150  A    between atoms: _370  and  _371
REMARK  151  A    between atoms: _373  and  _375
REMARK  152  A    between atoms: _375  and  _376
REMARK  153  A    between atoms: _379  and  _381
REMARK  154  A    between atoms: _381  and  _382
REMARK  155  A    between atoms: _381  and  _384
REMARK  156  A    between atoms: _384  and  _385
REMARK  157  A    between atoms: _388  and  _390
REMARK  158  A    between atoms: _390  and  _391
REMARK  159  A    between atoms: _390  and  _393
REMARK  160  A    between atoms: _393  and  _394
REMARK  161  A    between atoms: _397  and  _399
REMARK  162  A    between atoms: _399  and  _400
REMARK  163  A    between atoms: _399  and  _402
REMARK  164  A    between atoms: _402  and  _403
REMARK  165  A    between atoms: _406  and  _408
REMARK  166  A    between atoms: _408  and  _409
REMARK  167  A    between atoms: _408  and  _411
REMARK  168  A    between atoms: _414  and  _416
REMARK  169  A    between atoms: _416  and  _417
REMARK  170  A    between atoms: _416  and  _419
REMARK  171  A    between atoms: _419  and  _420
REMARK  172  A    between atoms: _423  and  _425
REMARK  173  A    between atoms: _425  and  _426
REMARK  174  A    between atoms: _425  and  _428
REMARK  175  A    between atoms: _428  and  _429
REMARK  176  A    between atoms: _429  and  _430
REMARK  177  A    between atoms: _430  and  _431
REMARK  178  A    between atoms: _431  and  _432
REMARK  179  A    between atoms: _436  and  _438
REMARK  180  A    between atoms: _438  and  _439
REMARK  181  A    between atoms: _438  and  _441
REMARK  182  A    between atoms: _441  and  _442
REMARK  183  A    between atoms: _442  and  _443
REMARK  184  A    between atoms: _445  and  _447
REMARK  185  A    between atoms: _447  and  _448
REMARK  186  A    between atoms: _447  and  _450
REMARK  187  A    between atoms: _450  and  _451
REMARK  188  A    between atoms: _454  and  _456
REMARK  189  A    between atoms: _456  and  _457
REMARK  190  A    between atoms: _459  and  _461
REMARK  191  A    between atoms: _461  and  _462
REMARK  192  A    between atoms: _464  and  _466
REMARK  193  A    between atoms: _466  and  _467
REMARK  194  A    between atoms: _466  and  _469
REMARK  195  A    between atoms: _469  and  _470
REMARK  196  A    between atoms: _473  and  _475
REMARK  197  A    between atoms: _475  and  _476
REMARK  198  A    between atoms: _478  and  _480
REMARK  199  A    between atoms: _480  and  _481
REMARK  200  A    between atoms: _483  and  _485
REMARK  201  A    between atoms: _485  and  _486
REMARK  202  A    between atoms: _485  and  _488
REMARK  203  A    between atoms: _488  and  _489
REMARK  204  A    between atoms: _495  and  _497
REMARK  205  A    between atoms: _497  and  _498
REMARK  206  A    between atoms: _497  and  _500
REMARK  207  A    between atoms: _500  and  _501
REMARK  208  A    between atoms: _504  and  _506
REMARK  209  A    between atoms: _506  and  _507
REMARK  210  A    between atoms: _506  and  _509
REMARK  211  A    between atoms: _509  and  _510
REMARK  212  A    between atoms: _510  and  _511
REMARK  213  A    between atoms: _516  and  _518
REMARK  214  A    between atoms: _518  and  _519
REMARK  215  A    between atoms: _518  and  _521
REMARK  216  A    between atoms: _521  and  _522
REMARK  217  A    between atoms: _526  and  _527
REMARK  218  A    between atoms: _532  and  _534
REMARK  219  A    between atoms: _534  and  _535
REMARK  220  A    between atoms: _534  and  _537
REMARK  221  A    between atoms: _537  and  _538
REMARK  222  A    between atoms: _542  and  _543
REMARK  223  A    between atoms: _548  and  _550
REMARK  224  A    between atoms: _550  and  _551
REMARK  225  A    between atoms: _550  and  _553
REMARK  226  A    between atoms: _553  and  _554
REMARK  227  A    between atoms: _560  and  _562
REMARK  228  A    between atoms: _562  and  _563
REMARK  229  A    between atoms: _562  and  _565
REMARK  230  A    between atoms: _565  and  _566
REMARK  231  A    between atoms: _571  and  _573
REMARK  232  A    between atoms: _573  and  _574
REMARK  233  A    between atoms: _573  and  _576
REMARK  234  A    between atoms: _579  and  _581
REMARK  235  A    between atoms: _581  and  _582
REMARK  236  A    between atoms: _581  and  _584
REMARK  237  A    between atoms: _584  and  _585
REMARK  238  A    between atoms: _588  and  _590
REMARK  239  A    between atoms: _590  and  _591
REMARK  240  A    between atoms: _593  and  _595
REMARK  241  A    between atoms: _595  and  _596
REMARK  242  A    between atoms: _595  and  _598
REMARK  243  A    between atoms: _598  and  _599
REMARK  244  A    between atoms: _599  and  _600
REMARK  245  A    between atoms: _600  and  _601
REMARK  246  A    between atoms: _610  and  _612
REMARK  247  A    between atoms: _612  and  _613
REMARK  248  A    between atoms: _612  and  _615
REMARK  249  A    between atoms: _615  and  _616
REMARK                            x       y       z     vdW  Elec       q    Type
REMARK                         _______ _______ _______ _____ _____    ______ ____
ROOT
ATOM      1  O   HOH     1     -17.374  19.149  32.443  0.00  0.00    +0.000 OA
ENDROOT
TORSDOF 0
REMARK  Name = ../refined-set-2016/1bwb/1bwb_pocket.pdb
REMARK  249 active torsions:
REMARK  status: ('A' for Active; 'I' for Inactive)
REMARK    1  A    between atoms: _1  and  _3
REMARK    2  A    between atoms: _3  and  _4
REMARK    3  A    between atoms: _3  and  _6
REMARK    4  A    between atoms: _6  and  _7
REMARK    5  A    between atoms: _7  and  _8
REMARK    6  A    between atoms: _8  and  _9
REMARK    7  A    between atoms: _18  and  _20
REMARK    8  A    between atoms: _20  and  _21
REMARK    9  A    between atoms: _20  and  _23
REMARK   10  A    between atoms: _23  and  _24
REMARK   11  A    between atoms: _27  and  _29
REMARK   12  A    between atoms: _29  and  _30
REMARK   13  A    between atoms: _29  and  _32
REMARK   14  A    between atoms: _32  and  _33
REMARK   15  A    between atoms: _36  and  _38
REMARK   16  A    between atoms: _38  and  _39
REMARK   17  A    between atoms: _38  and  _41
REMARK   18  A    between atoms: _41  and  _42
REMARK   19  A    between atoms: _45  and  _47
REMARK   20  A    between atoms: _47  and  _48
REMARK   21  A    between atoms: _47  and  _50
REMARK   22  A    between atoms: _50  and  _51
REMARK   23  A    between atoms: _54  and  _56
REMARK   24  A    between atoms: _56  and  _57
REMARK   25  A    between atoms: _59  and  _61
REMARK   26  A    between atoms: _61  and  _62
REMARK   27  A    between atoms: _65  and  _67
REMARK   28  A    between atoms: _67  and  _68
REMARK   29  A    between atoms: _67  and  _70
REMARK   30  A    between atoms: _70  and  _71
REMARK   31  A    between atoms: _74  and  _76
REMARK   32  A    between atoms: _76  and  _77
REMARK   33  A    between atoms: _76  and  _79
REMARK   34  A    between atoms: _79  and  _80
REMARK   35  A    between atoms: _83  and  _85
REMARK   36  A    between atoms: _85  and  _86
REMARK   37  A    between atoms: _85  and  _88
REMARK   38  A    between atoms: _88  and  _89
REMARK   39  A    between atoms: _92  and  _94
REMARK   40  A    between atoms: _94  and  _95
REMARK   41  A    between atoms: _94  and  _97
REMARK   42  A    between atoms: _100  and  _102
REMARK   43  A    between atoms: _102  and  _103
REMARK   44  A    between atoms: _102  and  _105
REMARK   45  A    between atoms: _105  and  _106
REMARK   46  A    between atoms: _109  and  _111
REMARK   47  A    between atoms: _111  and  _112
REMARK   48  A    between atoms: _111  and  _114
REMARK   49  A    between atoms: _114  and  _115
REMARK   50  A    between atoms: _115  and  _116
REMARK   51  A    between atoms: _116  and  _117
REMARK   52  A    between atoms: _117  and  _118
REMARK   53  A    between atoms: _122  and  _124
REMARK   54  A    between atoms: _124  and  _125
REMARK   55  A    between atoms: _124  and  _127
REMARK   56  A    between atoms: _127  and  _128
REMARK   57  A    between atoms: _128  and  _129
REMARK   58  A    between atoms: _131  and  _133
REMARK   59  A    between atoms: _133  and  _134
REMARK   60  A    between atoms: _133  and  _136
REMARK   61  A    between atoms: _136  and  _137
REMARK   62  A    between atoms: _140  and  _142
REMARK   63  A    between atoms: _142  and  _143
REMARK   64  A    between atoms: _145  and  _147
REMARK   65  A    between atoms: _147  and  _148
REMARK   66  A    between atoms: _150  and  _152
REMARK   67  A    between atoms: _152  and  _153
REMARK   68  A    between atoms: _152  and  _155
REMARK   69  A    between atoms: _155  and  _156
REMARK   70  A    between atoms: _159  and  _161
REMARK   71  A    between atoms: _161  and  _162
REMARK   72  A    between atoms: _164  and  _166
REMARK   73  A    between atoms: _166  and  _167
REMARK   74  A    between atoms: _169  and  _171
REMARK   75  A    between atoms: _171  and  _172
REMARK   76  A    between atoms: _171  and  _174
REMARK   77  A    between atoms: _174  and  _175
REMARK   78  A    between atoms: _181  and  _183
REMARK   79  A    between atoms: _183  and  _184
REMARK   80  A    between atoms: _183  and  _186
REMARK   81  A    between atoms: _186  and  _187
REMARK   82  A    between atoms: _190  and  _192
REMARK   83  A    between atoms: _192  and  _193
REMARK   84  A    between atoms: _192  and  _195
REMARK   85  A    between atoms: _198  and  _200
REMARK   86  A    between atoms: _200  and  _201
REMARK   87  A    between atoms: _200  and  _203
REMARK   88  A    between atoms: _203  and  _204
REMARK   89  A    between atoms: _204  and  _205
REMARK   90  A    between atoms: _210  and  _212
REMARK   91  A    between atoms: _212  and  _213
REMARK   92  A    between atoms: _212  and  _215
REMARK   93  A    between atoms: _215  and  _216
REMARK   94  A    between atoms: _220  and  _221
REMARK   95  A    between atoms: _226  and  _228
REMARK   96  A    between atoms: _228  and  _229
REMARK   97  A    between atoms: _228  and  _231
REMARK   98  A    between atoms: _231  and  _232
REMARK   99  A    between atoms: _236  and  _237
REMARK  100  A    between atoms: _242  and  _244
REMARK  101  A    between atoms: _244  and  _245
REMARK  102  A    between atoms: _244  and  _247
REMARK  103  A    between atoms: _247  and  _248
REMARK  104  A    between atoms: _254  and  _256
REMARK  105  A    between atoms: _256  and  _257
REMARK  106  A    between atoms: _256  and  _259
REMARK  107  A    between atoms: _259  and  _260
REMARK  108  A    between atoms: _265  and  _267
REMARK  109  A    between atoms: _267  and  _268
REMARK  110  A    between atoms: _267  and  _270
REMARK  111  A    between atoms: _273  and  _275
REMARK  112  A    between atoms: _275  and  _276
REMARK  113  A    between atoms: _275  and  _278
REMARK  114  A    between atoms: _278  and  _279
REMARK  115  A    between atoms: _282  and  _284
REMARK  116  A    between atoms: _284  and  _285
REMARK  117  A    between atoms: _287  and  _289
REMARK  118  A    between atoms: _289  and  _290
REMARK  119  A    between atoms: _289  and  _292
REMARK  120  A    between atoms: _292  and  _293
REMARK  121  A    between atoms: _293  and  _294
REMARK  122  A    between atoms: _294  and  _295
REMARK  123  A    between atoms: _304  and  _306
REMARK  124  A    between atoms: _306  and  _307
REMARK  125  A    between atoms: _306  and  _309
REMARK  126  A    between atoms: _309  and  _310
REMARK  127  A    between atoms: _315  and  _317
REMARK  128  A    between atoms: _317  and  _318
REMARK  129  A    between atoms: _317  and  _320
REMARK  130  A    between atoms: _320  and  _321
REMARK  131  A    between atoms: _321  and  _322
REMARK  132  A    between atoms: _322  and  _323
REMARK  133  A    between atoms: _332  and  _334
REMARK  134  A    between atoms: _334  and  _335
REMARK  135  A    between atoms: _334  and  _337
REMARK  136  A    between atoms: _337  and  _338
REMARK  137  A    between atoms: _341  and  _343
REMARK  138  A    between atoms: _343  and  _344
REMARK  139  A    between atoms: _343  and  _346
REMARK  140  A    between atoms: _346  and  _347
REMARK  141  A    between atoms: _350  and  _352
REMARK  142  A    between atoms: _352  and  _353
REMARK  143  A    between atoms: _352  and  _355
REMARK  144  A    between atoms: _355  and  _356
REMARK  145  A    between atoms: _359  and  _361
REMARK  146  A    between atoms: _361  and  _362
REMARK  147  A    between atoms: _361  and  _364
REMARK  148  A    between atoms: _364  and  _365
REMARK  149  A    between atoms: _368  and  _370
REMARK  150  A    between atoms: _370  and  _371
REMARK  151  A    between atoms: _373  and  _375
REMARK  152  A    between atoms: _375  and  _376
REMARK  153  A    between atoms: _379  and  _381
REMARK  154  A    between atoms: _381  and  _382
REMARK  155  A    between atoms: _381  and  _384
REMARK  156  A    between atoms: _384  and  _385
REMARK  157  A    between atoms: _388  and  _390
REMARK  158  A    between atoms: _390  and  _391
REMARK  159  A    between atoms: _390  and  _393
REMARK  160  A    between atoms: _393  and  _394
REMARK  161  A    between atoms: _397  and  _399
REMARK  162  A    between atoms: _399  and  _400
REMARK  163  A    between atoms: _399  and  _402
REMARK  164  A    between atoms: _402  and  _403
REMARK  165  A    between atoms: _406  and  _408
REMARK  166  A    between atoms: _408  and  _409
REMARK  167  A    between atoms: _408  and  _411
REMARK  168  A    between atoms: _414  and  _416
REMARK  169  A    between atoms: _416  and  _417
REMARK  170  A    between atoms: _416  and  _419
REMARK  171  A    between atoms: _419  and  _420
REMARK  172  A    between atoms: _423  and  _425
REMARK  173  A    between atoms: _425  and  _426
REMARK  174  A    between atoms: _425  and  _428
REMARK  175  A    between atoms: _428  and  _429
REMARK  176  A    between atoms: _429  and  _430
REMARK  177  A    between atoms: _430  and  _431
REMARK  178  A    between atoms: _431  and  _432
REMARK  179  A    between atoms: _436  and  _438
REMARK  180  A    between atoms: _438  and  _439
REMARK  181  A    between atoms: _438  and  _441
REMARK  182  A    between atoms: _441  and  _442
REMARK  183  A    between atoms: _442  and  _443
REMARK  184  A    between atoms: _445  and  _447
REMARK  185  A    between atoms: _447  and  _448
REMARK  186  A    between atoms: _447  and  _450
REMARK  187  A    between atoms: _450  and  _451
REMARK  188  A    between atoms: _454  and  _456
REMARK  189  A    between atoms: _456  and  _457
REMARK  190  A    between atoms: _459  and  _461
REMARK  191  A    between atoms: _461  and  _462
REMARK  192  A    between atoms: _464  and  _466
REMARK  193  A    between atoms: _466  and  _467
REMARK  194  A    between atoms: _466  and  _469
REMARK  195  A    between atoms: _469  and  _470
REMARK  196  A    between atoms: _473  and  _475
REMARK  197  A    between atoms: _475  and  _476
REMARK  198  A    between atoms: _478  and  _480
REMARK  199  A    between atoms: _480  and  _481
REMARK  200  A    between atoms: _483  and  _485
REMARK  201  A    between atoms: _485  and  _486
REMARK  202  A    between atoms: _485  and  _488
REMARK  203  A    between atoms: _488  and  _489
REMARK  204  A    between atoms: _495  and  _497
REMARK  205  A    between atoms: _497  and  _498
REMARK  206  A    between atoms: _497  and  _500
REMARK  207  A    between atoms: _500  and  _501
REMARK  208  A    between atoms: _504  and  _506
REMARK  209  A    between atoms: _506  and  _507
REMARK  210  A    between atoms: _506  and  _509
REMARK  211  A    between atoms: _509  and  _510
REMARK  212  A    between atoms: _510  and  _511
REMARK  213  A    between atoms: _516  and  _518
REMARK  214  A    between atoms: _518  and  _519
REMARK  215  A    between atoms: _518  and  _521
REMARK  216  A    between atoms: _521  and  _522
REMARK  217  A    between atoms: _526  and  _527
REMARK  218  A    between atoms: _532  and  _534
REMARK  219  A    between atoms: _534  and  _535
REMARK  220  A    between atoms: _534  and  _537
REMARK  221  A    between atoms: _537  and  _538
REMARK  222  A    between atoms: _542  and  _543
REMARK  223  A    between atoms: _548  and  _550
REMARK  224  A    between atoms: _550  and  _551
REMARK  225  A    between atoms: _550  and  _553
REMARK  226  A    between atoms: _553  and  _554
REMARK  227  A    between atoms: _560  and  _562
REMARK  228  A    between atoms: _562  and  _563
REMARK  229  A    between atoms: _562  and  _565
REMARK  230  A    between atoms: _565  and  _566
REMARK  231  A    between atoms: _571  and  _573
REMARK  232  A    between atoms: _573  and  _574
REMARK  233  A    between atoms: _573  and  _576
REMARK  234  A    between atoms: _579  and  _581
REMARK  235  A    between atoms: _581  and  _582
REMARK  236  A    between atoms: _581  and  _584
REMARK  237  A    between atoms: _584  and  _585
REMARK  238  A    between atoms: _588  and  _590
REMARK  239  A    between atoms: _590  and  _591
REMARK  240  A    between atoms: _593  and  _595
REMARK  241  A    between atoms: _595  and  _596
REMARK  242  A    between atoms: _595  and  _598
REMARK  243  A    between atoms: _598  and  _599
REMARK  244  A    between atoms: _599  and  _600
REMARK  245  A    between atoms: _600  and  _601
REMARK  246  A    between atoms: _610  and  _612
REMARK  247  A    between atoms: _612  and  _613
REMARK  248  A    between atoms: _612  and  _615
REMARK  249  A    between atoms: _615  and  _616
REMARK                            x       y       z     vdW  Elec       q    Type
REMARK                         _______ _______ _______ _____ _____    ______ ____
ROOT
ATOM      1  O   HOH     1     -13.801  15.828  33.272  0.00  0.00    +0.000 OA
ENDROOT
TORSDOF 0
REMARK  Name = ../refined-set-2016/1bwb/1bwb_pocket.pdb
REMARK  249 active torsions:
REMARK  status: ('A' for Active; 'I' for Inactive)
REMARK    1  A    between atoms: _1  and  _3
REMARK    2  A    between atoms: _3  and  _4
REMARK    3  A    between atoms: _3  and  _6
REMARK    4  A    between atoms: _6  and  _7
REMARK    5  A    between atoms: _7  and  _8
REMARK    6  A    between atoms: _8  and  _9
REMARK    7  A    between atoms: _18  and  _20
REMARK    8  A    between atoms: _20  and  _21
REMARK    9  A    between atoms: _20  and  _23
REMARK   10  A    between atoms: _23  and  _24
REMARK   11  A    between atoms: _27  and  _29
REMARK   12  A    between atoms: _29  and  _30
REMARK   13  A    between atoms: _29  and  _32
REMARK   14  A    between atoms: _32  and  _33
REMARK   15  A    between atoms: _36  and  _38
REMARK   16  A    between atoms: _38  and  _39
REMARK   17  A    between atoms: _38  and  _41
REMARK   18  A    between atoms: _41  and  _42
REMARK   19  A    between atoms: _45  and  _47
REMARK   20  A    between atoms: _47  and  _48
REMARK   21  A    between atoms: _47  and  _50
REMARK   22  A    between atoms: _50  and  _51
REMARK   23  A    between atoms: _54  and  _56
REMARK   24  A    between atoms: _56  and  _57
REMARK   25  A    between atoms: _59  and  _61
REMARK   26  A    between atoms: _61  and  _62
REMARK   27  A    between atoms: _65  and  _67
REMARK   28  A    between atoms: _67  and  _68
REMARK   29  A    between atoms: _67  and  _70
REMARK   30  A    between atoms: _70  and  _71
REMARK   31  A    between atoms: _74  and  _76
REMARK   32  A    between atoms: _76  and  _77
REMARK   33  A    between atoms: _76  and  _79
REMARK   34  A    between atoms: _79  and  _80
REMARK   35  A    between atoms: _83  and  _85
REMARK   36  A    between atoms: _85  and  _86
REMARK   37  A    between atoms: _85  and  _88
REMARK   38  A    between atoms: _88  and  _89
REMARK   39  A    between atoms: _92  and  _94
REMARK   40  A    between atoms: _94  and  _95
REMARK   41  A    between atoms: _94  and  _97
REMARK   42  A    between atoms: _100  and  _102
REMARK   43  A    between atoms: _102  and  _103
REMARK   44  A    between atoms: _102  and  _105
REMARK   45  A    between atoms: _105  and  _106
REMARK   46  A    between atoms: _109  and  _111
REMARK   47  A    between atoms: _111  and  _112
REMARK   48  A    between atoms: _111  and  _114
REMARK   49  A    between atoms: _114  and  _115
REMARK   50  A    between atoms: _115  and  _116
REMARK   51  A    between atoms: _116  and  _117
REMARK   52  A    between atoms: _117  and  _118
REMARK   53  A    between atoms: _122  and  _124
REMARK   54  A    between atoms: _124  and  _125
REMARK   55  A    between atoms: _124  and  _127
REMARK   56  A    between atoms: _127  and  _128
REMARK   57  A    between atoms: _128  and  _129
REMARK   58  A    between atoms: _131  and  _133
REMARK   59  A    between atoms: _133  and  _134
REMARK   60  A    between atoms: _133  and  _136
REMARK   61  A    between atoms: _136  and  _137
REMARK   62  A    between atoms: _140  and  _142
REMARK   63  A    between atoms: _142  and  _143
REMARK   64  A    between atoms: _145  and  _147
REMARK   65  A    between atoms: _147  and  _148
REMARK   66  A    between atoms: _150  and  _152
REMARK   67  A    between atoms: _152  and  _153
REMARK   68  A    between atoms: _152  and  _155
REMARK   69  A    between atoms: _155  and  _156
REMARK   70  A    between atoms: _159  and  _161
REMARK   71  A    between atoms: _161  and  _162
REMARK   72  A    between atoms: _164  and  _166
REMARK   73  A    between atoms: _166  and  _167
REMARK   74  A    between atoms: _169  and  _171
REMARK   75  A    between atoms: _171  and  _172
REMARK   76  A    between atoms: _171  and  _174
REMARK   77  A    between atoms: _174  and  _175
REMARK   78  A    between atoms: _181  and  _183
REMARK   79  A    between atoms: _183  and  _184
REMARK   80  A    between atoms: _183  and  _186
REMARK   81  A    between atoms: _186  and  _187
REMARK   82  A    between atoms: _190  and  _192
REMARK   83  A    between atoms: _192  and  _193
REMARK   84  A    between atoms: _192  and  _195
REMARK   85  A    between atoms: _198  and  _200
REMARK   86  A    between atoms: _200  and  _201
REMARK   87  A    between atoms: _200  and  _203
REMARK   88  A    between atoms: _203  and  _204
REMARK   89  A    between atoms: _204  and  _205
REMARK   90  A    between atoms: _210  and  _212
REMARK   91  A    between atoms: _212  and  _213
REMARK   92  A    between atoms: _212  and  _215
REMARK   93  A    between atoms: _215  and  _216
REMARK   94  A    between atoms: _220  and  _221
REMARK   95  A    between atoms: _226  and  _228
REMARK   96  A    between atoms: _228  and  _229
REMARK   97  A    between atoms: _228  and  _231
REMARK   98  A    between atoms: _231  and  _232
REMARK   99  A    between atoms: _236  and  _237
REMARK  100  A    between atoms: _242  and  _244
REMARK  101  A    between atoms: _244  and  _245
REMARK  102  A    between atoms: _244  and  _247
REMARK  103  A    between atoms: _247  and  _248
REMARK  104  A    between atoms: _254  and  _256
REMARK  105  A    between atoms: _256  and  _257
REMARK  106  A    between atoms: _256  and  _259
REMARK  107  A    between atoms: _259  and  _260
REMARK  108  A    between atoms: _265  and  _267
REMARK  109  A    between atoms: _267  and  _268
REMARK  110  A    between atoms: _267  and  _270
REMARK  111  A    between atoms: _273  and  _275
REMARK  112  A    between atoms: _275  and  _276
REMARK  113  A    between atoms: _275  and  _278
REMARK  114  A    between atoms: _278  and  _279
REMARK  115  A    between atoms: _282  and  _284
REMARK  116  A    between atoms: _284  and  _285
REMARK  117  A    between atoms: _287  and  _289
REMARK  118  A    between atoms: _289  and  _290
REMARK  119  A    between atoms: _289  and  _292
REMARK  120  A    between atoms: _292  and  _293
REMARK  121  A    between atoms: _293  and  _294
REMARK  122  A    between atoms: _294  and  _295
REMARK  123  A    between atoms: _304  and  _306
REMARK  124  A    between atoms: _306  and  _307
REMARK  125  A    between atoms: _306  and  _309
REMARK  126  A    between atoms: _309  and  _310
REMARK  127  A    between atoms: _315  and  _317
REMARK  128  A    between atoms: _317  and  _318
REMARK  129  A    between atoms: _317  and  _320
REMARK  130  A    between atoms: _320  and  _321
REMARK  131  A    between atoms: _321  and  _322
REMARK  132  A    between atoms: _322  and  _323
REMARK  133  A    between atoms: _332  and  _334
REMARK  134  A    between atoms: _334  and  _335
REMARK  135  A    between atoms: _334  and  _337
REMARK  136  A    between atoms: _337  and  _338
REMARK  137  A    between atoms: _341  and  _343
REMARK  138  A    between atoms: _343  and  _344
REMARK  139  A    between atoms: _343  and  _346
REMARK  140  A    between atoms: _346  and  _347
REMARK  141  A    between atoms: _350  and  _352
REMARK  142  A    between atoms: _352  and  _353
REMARK  143  A    between atoms: _352  and  _355
REMARK  144  A    between atoms: _355  and  _356
REMARK  145  A    between atoms: _359  and  _361
REMARK  146  A    between atoms: _361  and  _362
REMARK  147  A    between atoms: _361  and  _364
REMARK  148  A    between atoms: _364  and  _365
REMARK  149  A    between atoms: _368  and  _370
REMARK  150  A    between atoms: _370  and  _371
REMARK  151  A    between atoms: _373  and  _375
REMARK  152  A    between atoms: _375  and  _376
REMARK  153  A    between atoms: _379  and  _381
REMARK  154  A    between atoms: _381  and  _382
REMARK  155  A    between atoms: _381  and  _384
REMARK  156  A    between atoms: _384  and  _385
REMARK  157  A    between atoms: _388  and  _390
REMARK  158  A    between atoms: _390  and  _391
REMARK  159  A    between atoms: _390  and  _393
REMARK  160  A    between atoms: _393  and  _394
REMARK  161  A    between atoms: _397  and  _399
REMARK  162  A    between atoms: _399  and  _400
REMARK  163  A    between atoms: _399  and  _402
REMARK  164  A    between atoms: _402  and  _403
REMARK  165  A    between atoms: _406  and  _408
REMARK  166  A    between atoms: _408  and  _409
REMARK  167  A    between atoms: _408  and  _411
REMARK  168  A    between atoms: _414  and  _416
REMARK  169  A    between atoms: _416  and  _417
REMARK  170  A    between atoms: _416  and  _419
REMARK  171  A    between atoms: _419  and  _420
REMARK  172  A    between atoms: _423  and  _425
REMARK  173  A    between atoms: _425  and  _426
REMARK  174  A    between atoms: _425  and  _428
REMARK  175  A    between atoms: _428  and  _429
REMARK  176  A    between atoms: _429  and  _430
REMARK  177  A    between atoms: _430  and  _431
REMARK  178  A    between atoms: _431  and  _432
REMARK  179  A    between atoms: _436  and  _438
REMARK  180  A    between atoms: _438  and  _439
REMARK  181  A    between atoms: _438  and  _441
REMARK  182  A    between atoms: _441  and  _442
REMARK  183  A    between atoms: _442  and  _443
REMARK  184  A    between atoms: _445  and  _447
REMARK  185  A    between atoms: _447  and  _448
REMARK  186  A    between atoms: _447  and  _450
REMARK  187  A    between atoms: _450  and  _451
REMARK  188  A    between atoms: _454  and  _456
REMARK  189  A    between atoms: _456  and  _457
REMARK  190  A    between atoms: _459  and  _461
REMARK  191  A    between atoms: _461  and  _462
REMARK  192  A    between atoms: _464  and  _466
REMARK  193  A    between atoms: _466  and  _467
REMARK  194  A    between atoms: _466  and  _469
REMARK  195  A    between atoms: _469  and  _470
REMARK  196  A    between atoms: _473  and  _475
REMARK  197  A    between atoms: _475  and  _476
REMARK  198  A    between atoms: _478  and  _480
REMARK  199  A    between atoms: _480  and  _481
REMARK  200  A    between atoms: _483  and  _485
REMARK  201  A    between atoms: _485  and  _486
REMARK  202  A    between atoms: _485  and  _488
REMARK  203  A    between atoms: _488  and  _489
REMARK  204  A    between atoms: _495  and  _497
REMARK  205  A    between atoms: _497  and  _498
REMARK  206  A    between atoms: _497  and  _500
REMARK  207  A    between atoms: _500  and  _501
REMARK  208  A    between atoms: _504  and  _506
REMARK  209  A    between atoms: _506  and  _507
REMARK  210  A    between atoms: _506  and  _509
REMARK  211  A    between atoms: _509  and  _510
REMARK  212  A    between atoms: _510  and  _511
REMARK  213  A    between atoms: _516  and  _518
REMARK  214  A    between atoms: _518  and  _519
REMARK  215  A    between atoms: _518  and  _521
REMARK  216  A    between atoms: _521  and  _522
REMARK  217  A    between atoms: _526  and  _527
REMARK  218  A    between atoms: _532  and  _534
REMARK  219  A    between atoms: _534  and  _535
REMARK  220  A    between atoms: _534  and  _537
REMARK  221  A    between atoms: _537  and  _538
REMARK  222  A    between atoms: _542  and  _543
REMARK  223  A    between atoms: _548  and  _550
REMARK  224  A    between atoms: _550  and  _551
REMARK  225  A    between atoms: _550  and  _553
REMARK  226  A    between atoms: _553  and  _554
REMARK  227  A    between atoms: _560  and  _562
REMARK  228  A    between atoms: _562  and  _563
REMARK  229  A    between atoms: _562  and  _565
REMARK  230  A    between atoms: _565  and  _566
REMARK  231  A    between atoms: _571  and  _573
REMARK  232  A    between atoms: _573  and  _574
REMARK  233  A    between atoms: _573  and  _576
REMARK  234  A    between atoms: _579  and  _581
REMARK  235  A    between atoms: _581  and  _582
REMARK  236  A    between atoms: _581  and  _584
REMARK  237  A    between atoms: _584  and  _585
REMARK  238  A    between atoms: _588  and  _590
REMARK  239  A    between atoms: _590  and  _591
REMARK  240  A    between atoms: _593  and  _595
REMARK  241  A    between atoms: _595  and  _596
REMARK  242  A    between atoms: _595  and  _598
REMARK  243  A    between atoms: _598  and  _599
REMARK  244  A    between atoms: _599  and  _600
REMARK  245  A    between atoms: _600  and  _601
REMARK  246  A    between atoms: _610  and  _612
REMARK  247  A    between atoms: _612  and  _613
REMARK  248  A    between atoms: _612  and  _615
REMARK  249  A    between atoms: _615  and  _616
REMARK                            x       y       z     vdW  Elec       q    Type
REMARK                         _______ _______ _______ _____ _____    ______ ____
ROOT
ATOM      1  O   HOH     1       1.736  13.502  27.679  0.00  0.00    +0.000 OA
ENDROOT
TORSDOF 0
REMARK  Name = ../refined-set-2016/1bwb/1bwb_pocket.pdb
REMARK  249 active torsions:
REMARK  status: ('A' for Active; 'I' for Inactive)
REMARK    1  A    between atoms: _1  and  _3
REMARK    2  A    between atoms: _3  and  _4
REMARK    3  A    between atoms: _3  and  _6
REMARK    4  A    between atoms: _6  and  _7
REMARK    5  A    between atoms: _7  and  _8
REMARK    6  A    between atoms: _8  and  _9
REMARK    7  A    between atoms: _18  and  _20
REMARK    8  A    between atoms: _20  and  _21
REMARK    9  A    between atoms: _20  and  _23
REMARK   10  A    between atoms: _23  and  _24
REMARK   11  A    between atoms: _27  and  _29
REMARK   12  A    between atoms: _29  and  _30
REMARK   13  A    between atoms: _29  and  _32
REMARK   14  A    between atoms: _32  and  _33
REMARK   15  A    between atoms: _36  and  _38
REMARK   16  A    between atoms: _38  and  _39
REMARK   17  A    between atoms: _38  and  _41
REMARK   18  A    between atoms: _41  and  _42
REMARK   19  A    between atoms: _45  and  _47
REMARK   20  A    between atoms: _47  and  _48
REMARK   21  A    between atoms: _47  and  _50
REMARK   22  A    between atoms: _50  and  _51
REMARK   23  A    between atoms: _54  and  _56
REMARK   24  A    between atoms: _56  and  _57
REMARK   25  A    between atoms: _59  and  _61
REMARK   26  A    between atoms: _61  and  _62
REMARK   27  A    between atoms: _65  and  _67
REMARK   28  A    between atoms: _67  and  _68
REMARK   29  A    between atoms: _67  and  _70
REMARK   30  A    between atoms: _70  and  _71
REMARK   31  A    between atoms: _74  and  _76
REMARK   32  A    between atoms: _76  and  _77
REMARK   33  A    between atoms: _76  and  _79
REMARK   34  A    between atoms: _79  and  _80
REMARK   35  A    between atoms: _83  and  _85
REMARK   36  A    between atoms: _85  and  _86
REMARK   37  A    between atoms: _85  and  _88
REMARK   38  A    between atoms: _88  and  _89
REMARK   39  A    between atoms: _92  and  _94
REMARK   40  A    between atoms: _94  and  _95
REMARK   41  A    between atoms: _94  and  _97
REMARK   42  A    between atoms: _100  and  _102
REMARK   43  A    between atoms: _102  and  _103
REMARK   44  A    between atoms: _102  and  _105
REMARK   45  A    between atoms: _105  and  _106
REMARK   46  A    between atoms: _109  and  _111
REMARK   47  A    between atoms: _111  and  _112
REMARK   48  A    between atoms: _111  and  _114
REMARK   49  A    between atoms: _114  and  _115
REMARK   50  A    between atoms: _115  and  _116
REMARK   51  A    between atoms: _116  and  _117
REMARK   52  A    between atoms: _117  and  _118
REMARK   53  A    between atoms: _122  and  _124
REMARK   54  A    between atoms: _124  and  _125
REMARK   55  A    between atoms: _124  and  _127
REMARK   56  A    between atoms: _127  and  _128
REMARK   57  A    between atoms: _128  and  _129
REMARK   58  A    between atoms: _131  and  _133
REMARK   59  A    between atoms: _133  and  _134
REMARK   60  A    between atoms: _133  and  _136
REMARK   61  A    between atoms: _136  and  _137
REMARK   62  A    between atoms: _140  and  _142
REMARK   63  A    between atoms: _142  and  _143
REMARK   64  A    between atoms: _145  and  _147
REMARK   65  A    between atoms: _147  and  _148
REMARK   66  A    between atoms: _150  and  _152
REMARK   67  A    between atoms: _152  and  _153
REMARK   68  A    between atoms: _152  and  _155
REMARK   69  A    between atoms: _155  and  _156
REMARK   70  A    between atoms: _159  and  _161
REMARK   71  A    between atoms: _161  and  _162
REMARK   72  A    between atoms: _164  and  _166
REMARK   73  A    between atoms: _166  and  _167
REMARK   74  A    between atoms: _169  and  _171
REMARK   75  A    between atoms: _171  and  _172
REMARK   76  A    between atoms: _171  and  _174
REMARK   77  A    between atoms: _174  and  _175
REMARK   78  A    between atoms: _181  and  _183
REMARK   79  A    between atoms: _183  and  _184
REMARK   80  A    between atoms: _183  and  _186
REMARK   81  A    between atoms: _186  and  _187
REMARK   82  A    between atoms: _190  and  _192
REMARK   83  A    between atoms: _192  and  _193
REMARK   84  A    between atoms: _192  and  _195
REMARK   85  A    between atoms: _198  and  _200
REMARK   86  A    between atoms: _200  and  _201
REMARK   87  A    between atoms: _200  and  _203
REMARK   88  A    between atoms: _203  and  _204
REMARK   89  A    between atoms: _204  and  _205
REMARK   90  A    between atoms: _210  and  _212
REMARK   91  A    between atoms: _212  and  _213
REMARK   92  A    between atoms: _212  and  _215
REMARK   93  A    between atoms: _215  and  _216
REMARK   94  A    between atoms: _220  and  _221
REMARK   95  A    between atoms: _226  and  _228
REMARK   96  A    between atoms: _228  and  _229
REMARK   97  A    between atoms: _228  and  _231
REMARK   98  A    between atoms: _231  and  _232
REMARK   99  A    between atoms: _236  and  _237
REMARK  100  A    between atoms: _242  and  _244
REMARK  101  A    between atoms: _244  and  _245
REMARK  102  A    between atoms: _244  and  _247
REMARK  103  A    between atoms: _247  and  _248
REMARK  104  A    between atoms: _254  and  _256
REMARK  105  A    between atoms: _256  and  _257
REMARK  106  A    between atoms: _256  and  _259
REMARK  107  A    between atoms: _259  and  _260
REMARK  108  A    between atoms: _265  and  _267
REMARK  109  A    between atoms: _267  and  _268
REMARK  110  A    between atoms: _267  and  _270
REMARK  111  A    between atoms: _273  and  _275
REMARK  112  A    between atoms: _275  and  _276
REMARK  113  A    between atoms: _275  and  _278
REMARK  114  A    between atoms: _278  and  _279
REMARK  115  A    between atoms: _282  and  _284
REMARK  116  A    between atoms: _284  and  _285
REMARK  117  A    between atoms: _287  and  _289
REMARK  118  A    between atoms: _289  and  _290
REMARK  119  A    between atoms: _289  and  _292
REMARK  120  A    between atoms: _292  and  _293
REMARK  121  A    between atoms: _293  and  _294
REMARK  122  A    between atoms: _294  and  _295
REMARK  123  A    between atoms: _304  and  _306
REMARK  124  A    between atoms: _306  and  _307
REMARK  125  A    between atoms: _306  and  _309
REMARK  126  A    between atoms: _309  and  _310
REMARK  127  A    between atoms: _315  and  _317
REMARK  128  A    between atoms: _317  and  _318
REMARK  129  A    between atoms: _317  and  _320
REMARK  130  A    between atoms: _320  and  _321
REMARK  131  A    between atoms: _321  and  _322
REMARK  132  A    between atoms: _322  and  _323
REMARK  133  A    between atoms: _332  and  _334
REMARK  134  A    between atoms: _334  and  _335
REMARK  135  A    between atoms: _334  and  _337
REMARK  136  A    between atoms: _337  and  _338
REMARK  137  A    between atoms: _341  and  _343
REMARK  138  A    between atoms: _343  and  _344
REMARK  139  A    between atoms: _343  and  _346
REMARK  140  A    between atoms: _346  and  _347
REMARK  141  A    between atoms: _350  and  _352
REMARK  142  A    between atoms: _352  and  _353
REMARK  143  A    between atoms: _352  and  _355
REMARK  144  A    between atoms: _355  and  _356
REMARK  145  A    between atoms: _359  and  _361
REMARK  146  A    between atoms: _361  and  _362
REMARK  147  A    between atoms: _361  and  _364
REMARK  148  A    between atoms: _364  and  _365
REMARK  149  A    between atoms: _368  and  _370
REMARK  150  A    between atoms: _370  and  _371
REMARK  151  A    between atoms: _373  and  _375
REMARK  152  A    between atoms: _375  and  _376
REMARK  153  A    between atoms: _379  and  _381
REMARK  154  A    between atoms: _381  and  _382
REMARK  155  A    between atoms: _381  and  _384
REMARK  156  A    between atoms: _384  and  _385
REMARK  157  A    between atoms: _388  and  _390
REMARK  158  A    between atoms: _390  and  _391
REMARK  159  A    between atoms: _390  and  _393
REMARK  160  A    between atoms: _393  and  _394
REMARK  161  A    between atoms: _397  and  _399
REMARK  162  A    between atoms: _399  and  _400
REMARK  163  A    between atoms: _399  and  _402
REMARK  164  A    between atoms: _402  and  _403
REMARK  165  A    between atoms: _406  and  _408
REMARK  166  A    between atoms: _408  and  _409
REMARK  167  A    between atoms: _408  and  _411
REMARK  168  A    between atoms: _414  and  _416
REMARK  169  A    between atoms: _416  and  _417
REMARK  170  A    between atoms: _416  and  _419
REMARK  171  A    between atoms: _419  and  _420
REMARK  172  A    between atoms: _423  and  _425
REMARK  173  A    between atoms: _425  and  _426
REMARK  174  A    between atoms: _425  and  _428
REMARK  175  A    between atoms: _428  and  _429
REMARK  176  A    between atoms: _429  and  _430
REMARK  177  A    between atoms: _430  and  _431
REMARK  178  A    between atoms: _431  and  _432
REMARK  179  A    between atoms: _436  and  _438
REMARK  180  A    between atoms: _438  and  _439
REMARK  181  A    between atoms: _438  and  _441
REMARK  182  A    between atoms: _441  and  _442
REMARK  183  A    between atoms: _442  and  _443
REMARK  184  A    between atoms: _445  and  _447
REMARK  185  A    between atoms: _447  and  _448
REMARK  186  A    between atoms: _447  and  _450
REMARK  187  A    between atoms: _450  and  _451
REMARK  188  A    between atoms: _454  and  _456
REMARK  189  A    between atoms: _456  and  _457
REMARK  190  A    between atoms: _459  and  _461
REMARK  191  A    between atoms: _461  and  _462
REMARK  192  A    between atoms: _464  and  _466
REMARK  193  A    between atoms: _466  and  _467
REMARK  194  A    between atoms: _466  and  _469
REMARK  195  A    between atoms: _469  and  _470
REMARK  196  A    between atoms: _473  and  _475
REMARK  197  A    between atoms: _475  and  _476
REMARK  198  A    between atoms: _478  and  _480
REMARK  199  A    between atoms: _480  and  _481
REMARK  200  A    between atoms: _483  and  _485
REMARK  201  A    between atoms: _485  and  _486
REMARK  202  A    between atoms: _485  and  _488
REMARK  203  A    between atoms: _488  and  _489
REMARK  204  A    between atoms: _495  and  _497
REMARK  205  A    between atoms: _497  and  _498
REMARK  206  A    between atoms: _497  and  _500
REMARK  207  A    between atoms: _500  and  _501
REMARK  208  A    between atoms: _504  and  _506
REMARK  209  A    between atoms: _506  and  _507
REMARK  210  A    between atoms: _506  and  _509
REMARK  211  A    between atoms: _509  and  _510
REMARK  212  A    between atoms: _510  and  _511
REMARK  213  A    between atoms: _516  and  _518
REMARK  214  A    between atoms: _518  and  _519
REMARK  215  A    between atoms: _518  and  _521
REMARK  216  A    between atoms: _521  and  _522
REMARK  217  A    between atoms: _526  and  _527
REMARK  218  A    between atoms: _532  and  _534
REMARK  219  A    between atoms: _534  and  _535
REMARK  220  A    between atoms: _534  and  _537
REMARK  221  A    between atoms: _537  and  _538
REMARK  222  A    between atoms: _542  and  _543
REMARK  223  A    between atoms: _548  and  _550
REMARK  224  A    between atoms: _550  and  _551
REMARK  225  A    between atoms: _550  and  _553
REMARK  226  A    between atoms: _553  and  _554
REMARK  227  A    between atoms: _560  and  _562
REMARK  228  A    between atoms: _562  and  _563
REMARK  229  A    between atoms: _562  and  _565
REMARK  230  A    between atoms: _565  and  _566
REMARK  231  A    between atoms: _571  and  _573
REMARK  232  A    between atoms: _573  and  _574
REMARK  233  A    between atoms: _573  and  _576
REMARK  234  A    between atoms: _579  and  _581
REMARK  235  A    between atoms: _581  and  _582
REMARK  236  A    between atoms: _581  and  _584
REMARK  237  A    between atoms: _584  and  _585
REMARK  238  A    between atoms: _588  and  _590
REMARK  239  A    between atoms: _590  and  _591
REMARK  240  A    between atoms: _593  and  _595
REMARK  241  A    between atoms: _595  and  _596
REMARK  242  A    between atoms: _595  and  _598
REMARK  243  A    between atoms: _598  and  _599
REMARK  244  A    between atoms: _599  and  _600
REMARK  245  A    between atoms: _600  and  _601
REMARK  246  A    between atoms: _610  and  _612
REMARK  247  A    between atoms: _612  and  _613
REMARK  248  A    between atoms: _612  and  _615
REMARK  249  A    between atoms: _615  and  _616
REMARK                            x       y       z     vdW  Elec       q    Type
REMARK                         _______ _______ _______ _____ _____    ______ ____
ROOT
ATOM      1  O   HOH     1     -16.145  20.328  39.200  0.00  0.00    +0.000 OA
ENDROOT
TORSDOF 0
REMARK  Name = ../refined-set-2016/1bwb/1bwb_pocket.pdb
REMARK  249 active torsions:
REMARK  status: ('A' for Active; 'I' for Inactive)
REMARK    1  A    between atoms: _1  and  _3
REMARK    2  A    between atoms: _3  and  _4
REMARK    3  A    between atoms: _3  and  _6
REMARK    4  A    between atoms: _6  and  _7
REMARK    5  A    between atoms: _7  and  _8
REMARK    6  A    between atoms: _8  and  _9
REMARK    7  A    between atoms: _18  and  _20
REMARK    8  A    between atoms: _20  and  _21
REMARK    9  A    between atoms: _20  and  _23
REMARK   10  A    between atoms: _23  and  _24
REMARK   11  A    between atoms: _27  and  _29
REMARK   12  A    between atoms: _29  and  _30
REMARK   13  A    between atoms: _29  and  _32
REMARK   14  A    between atoms: _32  and  _33
REMARK   15  A    between atoms: _36  and  _38
REMARK   16  A    between atoms: _38  and  _39
REMARK   17  A    between atoms: _38  and  _41
REMARK   18  A    between atoms: _41  and  _42
REMARK   19  A    between atoms: _45  and  _47
REMARK   20  A    between atoms: _47  and  _48
REMARK   21  A    between atoms: _47  and  _50
REMARK   22  A    between atoms: _50  and  _51
REMARK   23  A    between atoms: _54  and  _56
REMARK   24  A    between atoms: _56  and  _57
REMARK   25  A    between atoms: _59  and  _61
REMARK   26  A    between atoms: _61  and  _62
REMARK   27  A    between atoms: _65  and  _67
REMARK   28  A    between atoms: _67  and  _68
REMARK   29  A    between atoms: _67  and  _70
REMARK   30  A    between atoms: _70  and  _71
REMARK   31  A    between atoms: _74  and  _76
REMARK   32  A    between atoms: _76  and  _77
REMARK   33  A    between atoms: _76  and  _79
REMARK   34  A    between atoms: _79  and  _80
REMARK   35  A    between atoms: _83  and  _85
REMARK   36  A    between atoms: _85  and  _86
REMARK   37  A    between atoms: _85  and  _88
REMARK   38  A    between atoms: _88  and  _89
REMARK   39  A    between atoms: _92  and  _94
REMARK   40  A    between atoms: _94  and  _95
REMARK   41  A    between atoms: _94  and  _97
REMARK   42  A    between atoms: _100  and  _102
REMARK   43  A    between atoms: _102  and  _103
REMARK   44  A    between atoms: _102  and  _105
REMARK   45  A    between atoms: _105  and  _106
REMARK   46  A    between atoms: _109  and  _111
REMARK   47  A    between atoms: _111  and  _112
REMARK   48  A    between atoms: _111  and  _114
REMARK   49  A    between atoms: _114  and  _115
REMARK   50  A    between atoms: _115  and  _116
REMARK   51  A    between atoms: _116  and  _117
REMARK   52  A    between atoms: _117  and  _118
REMARK   53  A    between atoms: _122  and  _124
REMARK   54  A    between atoms: _124  and  _125
REMARK   55  A    between atoms: _124  and  _127
REMARK   56  A    between atoms: _127  and  _128
REMARK   57  A    between atoms: _128  and  _129
REMARK   58  A    between atoms: _131  and  _133
REMARK   59  A    between atoms: _133  and  _134
REMARK   60  A    between atoms: _133  and  _136
REMARK   61  A    between atoms: _136  and  _137
REMARK   62  A    between atoms: _140  and  _142
REMARK   63  A    between atoms: _142  and  _143
REMARK   64  A    between atoms: _145  and  _147
REMARK   65  A    between atoms: _147  and  _148
REMARK   66  A    between atoms: _150  and  _152
REMARK   67  A    between atoms: _152  and  _153
REMARK   68  A    between atoms: _152  and  _155
REMARK   69  A    between atoms: _155  and  _156
REMARK   70  A    between atoms: _159  and  _161
REMARK   71  A    between atoms: _161  and  _162
REMARK   72  A    between atoms: _164  and  _166
REMARK   73  A    between atoms: _166  and  _167
REMARK   74  A    between atoms: _169  and  _171
REMARK   75  A    between atoms: _171  and  _172
REMARK   76  A    between atoms: _171  and  _174
REMARK   77  A    between atoms: _174  and  _175
REMARK   78  A    between atoms: _181  and  _183
REMARK   79  A    between atoms: _183  and  _184
REMARK   80  A    between atoms: _183  and  _186
REMARK   81  A    between atoms: _186  and  _187
REMARK   82  A    between atoms: _190  and  _192
REMARK   83  A    between atoms: _192  and  _193
REMARK   84  A    between atoms: _192  and  _195
REMARK   85  A    between atoms: _198  and  _200
REMARK   86  A    between atoms: _200  and  _201
REMARK   87  A    between atoms: _200  and  _203
REMARK   88  A    between atoms: _203  and  _204
REMARK   89  A    between atoms: _204  and  _205
REMARK   90  A    between atoms: _210  and  _212
REMARK   91  A    between atoms: _212  and  _213
REMARK   92  A    between atoms: _212  and  _215
REMARK   93  A    between atoms: _215  and  _216
REMARK   94  A    between atoms: _220  and  _221
REMARK   95  A    between atoms: _226  and  _228
REMARK   96  A    between atoms: _228  and  _229
REMARK   97  A    between atoms: _228  and  _231
REMARK   98  A    between atoms: _231  and  _232
REMARK   99  A    between atoms: _236  and  _237
REMARK  100  A    between atoms: _242  and  _244
REMARK  101  A    between atoms: _244  and  _245
REMARK  102  A    between atoms: _244  and  _247
REMARK  103  A    between atoms: _247  and  _248
REMARK  104  A    between atoms: _254  and  _256
REMARK  105  A    between atoms: _256  and  _257
REMARK  106  A    between atoms: _256  and  _259
REMARK  107  A    between atoms: _259  and  _260
REMARK  108  A    between atoms: _265  and  _267
REMARK  109  A    between atoms: _267  and  _268
REMARK  110  A    between atoms: _267  and  _270
REMARK  111  A    between atoms: _273  and  _275
REMARK  112  A    between atoms: _275  and  _276
REMARK  113  A    between atoms: _275  and  _278
REMARK  114  A    between atoms: _278  and  _279
REMARK  115  A    between atoms: _282  and  _284
REMARK  116  A    between atoms: _284  and  _285
REMARK  117  A    between atoms: _287  and  _289
REMARK  118  A    between atoms: _289  and  _290
REMARK  119  A    between atoms: _289  and  _292
REMARK  120  A    between atoms: _292  and  _293
REMARK  121  A    between atoms: _293  and  _294
REMARK  122  A    between atoms: _294  and  _295
REMARK  123  A    between atoms: _304  and  _306
REMARK  124  A    between atoms: _306  and  _307
REMARK  125  A    between atoms: _306  and  _309
REMARK  126  A    between atoms: _309  and  _310
REMARK  127  A    between atoms: _315  and  _317
REMARK  128  A    between atoms: _317  and  _318
REMARK  129  A    between atoms: _317  and  _320
REMARK  130  A    between atoms: _320  and  _321
REMARK  131  A    between atoms: _321  and  _322
REMARK  132  A    between atoms: _322  and  _323
REMARK  133  A    between atoms: _332  and  _334
REMARK  134  A    between atoms: _334  and  _335
REMARK  135  A    between atoms: _334  and  _337
REMARK  136  A    between atoms: _337  and  _338
REMARK  137  A    between atoms: _341  and  _343
REMARK  138  A    between atoms: _343  and  _344
REMARK  139  A    between atoms: _343  and  _346
REMARK  140  A    between atoms: _346  and  _347
REMARK  141  A    between atoms: _350  and  _352
REMARK  142  A    between atoms: _352  and  _353
REMARK  143  A    between atoms: _352  and  _355
REMARK  144  A    between atoms: _355  and  _356
REMARK  145  A    between atoms: _359  and  _361
REMARK  146  A    between atoms: _361  and  _362
REMARK  147  A    between atoms: _361  and  _364
REMARK  148  A    between atoms: _364  and  _365
REMARK  149  A    between atoms: _368  and  _370
REMARK  150  A    between atoms: _370  and  _371
REMARK  151  A    between atoms: _373  and  _375
REMARK  152  A    between atoms: _375  and  _376
REMARK  153  A    between atoms: _379  and  _381
REMARK  154  A    between atoms: _381  and  _382
REMARK  155  A    between atoms: _381  and  _384
REMARK  156  A    between atoms: _384  and  _385
REMARK  157  A    between atoms: _388  and  _390
REMARK  158  A    between atoms: _390  and  _391
REMARK  159  A    between atoms: _390  and  _393
REMARK  160  A    between atoms: _393  and  _394
REMARK  161  A    between atoms: _397  and  _399
REMARK  162  A    between atoms: _399  and  _400
REMARK  163  A    between atoms: _399  and  _402
REMARK  164  A    between atoms: _402  and  _403
REMARK  165  A    between atoms: _406  and  _408
REMARK  166  A    between atoms: _408  and  _409
REMARK  167  A    between atoms: _408  and  _411
REMARK  168  A    between atoms: _414  and  _416
REMARK  169  A    between atoms: _416  and  _417
REMARK  170  A    between atoms: _416  and  _419
REMARK  171  A    between atoms: _419  and  _420
REMARK  172  A    between atoms: _423  and  _425
REMARK  173  A    between atoms: _425  and  _426
REMARK  174  A    between atoms: _425  and  _428
REMARK  175  A    between atoms: _428  and  _429
REMARK  176  A    between atoms: _429  and  _430
REMARK  177  A    between atoms: _430  and  _431
REMARK  178  A    between atoms: _431  and  _432
REMARK  179  A    between atoms: _436  and  _438
REMARK  180  A    between atoms: _438  and  _439
REMARK  181  A    between atoms: _438  and  _441
REMARK  182  A    between atoms: _441  and  _442
REMARK  183  A    between atoms: _442  and  _443
REMARK  184  A    between atoms: _445  and  _447
REMARK  185  A    between atoms: _447  and  _448
REMARK  186  A    between atoms: _447  and  _450
REMARK  187  A    between atoms: _450  and  _451
REMARK  188  A    between atoms: _454  and  _456
REMARK  189  A    between atoms: _456  and  _457
REMARK  190  A    between atoms: _459  and  _461
REMARK  191  A    between atoms: _461  and  _462
REMARK  192  A    between atoms: _464  and  _466
REMARK  193  A    between atoms: _466  and  _467
REMARK  194  A    between atoms: _466  and  _469
REMARK  195  A    between atoms: _469  and  _470
REMARK  196  A    between atoms: _473  and  _475
REMARK  197  A    between atoms: _475  and  _476
REMARK  198  A    between atoms: _478  and  _480
REMARK  199  A    between atoms: _480  and  _481
REMARK  200  A    between atoms: _483  and  _485
REMARK  201  A    between atoms: _485  and  _486
REMARK  202  A    between atoms: _485  and  _488
REMARK  203  A    between atoms: _488  and  _489
REMARK  204  A    between atoms: _495  and  _497
REMARK  205  A    between atoms: _497  and  _498
REMARK  206  A    between atoms: _497  and  _500
REMARK  207  A    between atoms: _500  and  _501
REMARK  208  A    between atoms: _504  and  _506
REMARK  209  A    between atoms: _506  and  _507
REMARK  210  A    between atoms: _506  and  _509
REMARK  211  A    between atoms: _509  and  _510
REMARK  212  A    between atoms: _510  and  _511
REMARK  213  A    between atoms: _516  and  _518
REMARK  214  A    between atoms: _518  and  _519
REMARK  215  A    between atoms: _518  and  _521
REMARK  216  A    between atoms: _521  and  _522
REMARK  217  A    between atoms: _526  and  _527
REMARK  218  A    between atoms: _532  and  _534
REMARK  219  A    between atoms: _534  and  _535
REMARK  220  A    between atoms: _534  and  _537
REMARK  221  A    between atoms: _537  and  _538
REMARK  222  A    between atoms: _542  and  _543
REMARK  223  A    between atoms: _548  and  _550
REMARK  224  A    between atoms: _550  and  _551
REMARK  225  A    between atoms: _550  and  _553
REMARK  226  A    between atoms: _553  and  _554
REMARK  227  A    between atoms: _560  and  _562
REMARK  228  A    between atoms: _562  and  _563
REMARK  229  A    between atoms: _562  and  _565
REMARK  230  A    between atoms: _565  and  _566
REMARK  231  A    between atoms: _571  and  _573
REMARK  232  A    between atoms: _573  and  _574
REMARK  233  A    between atoms: _573  and  _576
REMARK  234  A    between atoms: _579  and  _581
REMARK  235  A    between atoms: _581  and  _582
REMARK  236  A    between atoms: _581  and  _584
REMARK  237  A    between atoms: _584  and  _585
REMARK  238  A    between atoms: _588  and  _590
REMARK  239  A    between atoms: _590  and  _591
REMARK  240  A    between atoms: _593  and  _595
REMARK  241  A    between atoms: _595  and  _596
REMARK  242  A    between atoms: _595  and  _598
REMARK  243  A    between atoms: _598  and  _599
REMARK  244  A    between atoms: _599  and  _600
REMARK  245  A    between atoms: _600  and  _601
REMARK  246  A    between atoms: _610  and  _612
REMARK  247  A    between atoms: _612  and  _613
REMARK  248  A    between atoms: _612  and  _615
REMARK  249  A    between atoms: _615  and  _616
REMARK                            x       y       z     vdW  Elec       q    Type
REMARK                         _______ _______ _______ _____ _____    ______ ____
ROOT
ATOM      1  O   HOH     1     -10.717   6.346  29.280  0.00  0.00    +0.000 OA
ENDROOT
TORSDOF 0
REMARK  Name = ../refined-set-2016/1bwb/1bwb_pocket.pdb
REMARK  249 active torsions:
REMARK  status: ('A' for Active; 'I' for Inactive)
REMARK    1  A    between atoms: _1  and  _3
REMARK    2  A    between atoms: _3  and  _4
REMARK    3  A    between atoms: _3  and  _6
REMARK    4  A    between atoms: _6  and  _7
REMARK    5  A    between atoms: _7  and  _8
REMARK    6  A    between atoms: _8  and  _9
REMARK    7  A    between atoms: _18  and  _20
REMARK    8  A    between atoms: _20  and  _21
REMARK    9  A    between atoms: _20  and  _23
REMARK   10  A    between atoms: _23  and  _24
REMARK   11  A    between atoms: _27  and  _29
REMARK   12  A    between atoms: _29  and  _30
REMARK   13  A    between atoms: _29  and  _32
REMARK   14  A    between atoms: _32  and  _33
REMARK   15  A    between atoms: _36  and  _38
REMARK   16  A    between atoms: _38  and  _39
REMARK   17  A    between atoms: _38  and  _41
REMARK   18  A    between atoms: _41  and  _42
REMARK   19  A    between atoms: _45  and  _47
REMARK   20  A    between atoms: _47  and  _48
REMARK   21  A    between atoms: _47  and  _50
REMARK   22  A    between atoms: _50  and  _51
REMARK   23  A    between atoms: _54  and  _56
REMARK   24  A    between atoms: _56  and  _57
REMARK   25  A    between atoms: _59  and  _61
REMARK   26  A    between atoms: _61  and  _62
REMARK   27  A    between atoms: _65  and  _67
REMARK   28  A    between atoms: _67  and  _68
REMARK   29  A    between atoms: _67  and  _70
REMARK   30  A    between atoms: _70  and  _71
REMARK   31  A    between atoms: _74  and  _76
REMARK   32  A    between atoms: _76  and  _77
REMARK   33  A    between atoms: _76  and  _79
REMARK   34  A    between atoms: _79  and  _80
REMARK   35  A    between atoms: _83  and  _85
REMARK   36  A    between atoms: _85  and  _86
REMARK   37  A    between atoms: _85  and  _88
REMARK   38  A    between atoms: _88  and  _89
REMARK   39  A    between atoms: _92  and  _94
REMARK   40  A    between atoms: _94  and  _95
REMARK   41  A    between atoms: _94  and  _97
REMARK   42  A    between atoms: _100  and  _102
REMARK   43  A    between atoms: _102  and  _103
REMARK   44  A    between atoms: _102  and  _105
REMARK   45  A    between atoms: _105  and  _106
REMARK   46  A    between atoms: _109  and  _111
REMARK   47  A    between atoms: _111  and  _112
REMARK   48  A    between atoms: _111  and  _114
REMARK   49  A    between atoms: _114  and  _115
REMARK   50  A    between atoms: _115  and  _116
REMARK   51  A    between atoms: _116  and  _117
REMARK   52  A    between atoms: _117  and  _118
REMARK   53  A    between atoms: _122  and  _124
REMARK   54  A    between atoms: _124  and  _125
REMARK   55  A    between atoms: _124  and  _127
REMARK   56  A    between atoms: _127  and  _128
REMARK   57  A    between atoms: _128  and  _129
REMARK   58  A    between atoms: _131  and  _133
REMARK   59  A    between atoms: _133  and  _134
REMARK   60  A    between atoms: _133  and  _136
REMARK   61  A    between atoms: _136  and  _137
REMARK   62  A    between atoms: _140  and  _142
REMARK   63  A    between atoms: _142  and  _143
REMARK   64  A    between atoms: _145  and  _147
REMARK   65  A    between atoms: _147  and  _148
REMARK   66  A    between atoms: _150  and  _152
REMARK   67  A    between atoms: _152  and  _153
REMARK   68  A    between atoms: _152  and  _155
REMARK   69  A    between atoms: _155  and  _156
REMARK   70  A    between atoms: _159  and  _161
REMARK   71  A    between atoms: _161  and  _162
REMARK   72  A    between atoms: _164  and  _166
REMARK   73  A    between atoms: _166  and  _167
REMARK   74  A    between atoms: _169  and  _171
REMARK   75  A    between atoms: _171  and  _172
REMARK   76  A    between atoms: _171  and  _174
REMARK   77  A    between atoms: _174  and  _175
REMARK   78  A    between atoms: _181  and  _183
REMARK   79  A    between atoms: _183  and  _184
REMARK   80  A    between atoms: _183  and  _186
REMARK   81  A    between atoms: _186  and  _187
REMARK   82  A    between atoms: _190  and  _192
REMARK   83  A    between atoms: _192  and  _193
REMARK   84  A    between atoms: _192  and  _195
REMARK   85  A    between atoms: _198  and  _200
REMARK   86  A    between atoms: _200  and  _201
REMARK   87  A    between atoms: _200  and  _203
REMARK   88  A    between atoms: _203  and  _204
REMARK   89  A    between atoms: _204  and  _205
REMARK   90  A    between atoms: _210  and  _212
REMARK   91  A    between atoms: _212  and  _213
REMARK   92  A    between atoms: _212  and  _215
REMARK   93  A    between atoms: _215  and  _216
REMARK   94  A    between atoms: _220  and  _221
REMARK   95  A    between atoms: _226  and  _228
REMARK   96  A    between atoms: _228  and  _229
REMARK   97  A    between atoms: _228  and  _231
REMARK   98  A    between atoms: _231  and  _232
REMARK   99  A    between atoms: _236  and  _237
REMARK  100  A    between atoms: _242  and  _244
REMARK  101  A    between atoms: _244  and  _245
REMARK  102  A    between atoms: _244  and  _247
REMARK  103  A    between atoms: _247  and  _248
REMARK  104  A    between atoms: _254  and  _256
REMARK  105  A    between atoms: _256  and  _257
REMARK  106  A    between atoms: _256  and  _259
REMARK  107  A    between atoms: _259  and  _260
REMARK  108  A    between atoms: _265  and  _267
REMARK  109  A    between atoms: _267  and  _268
REMARK  110  A    between atoms: _267  and  _270
REMARK  111  A    between atoms: _273  and  _275
REMARK  112  A    between atoms: _275  and  _276
REMARK  113  A    between atoms: _275  and  _278
REMARK  114  A    between atoms: _278  and  _279
REMARK  115  A    between atoms: _282  and  _284
REMARK  116  A    between atoms: _284  and  _285
REMARK  117  A    between atoms: _287  and  _289
REMARK  118  A    between atoms: _289  and  _290
REMARK  119  A    between atoms: _289  and  _292
REMARK  120  A    between atoms: _292  and  _293
REMARK  121  A    between atoms: _293  and  _294
REMARK  122  A    between atoms: _294  and  _295
REMARK  123  A    between atoms: _304  and  _306
REMARK  124  A    between atoms: _306  and  _307
REMARK  125  A    between atoms: _306  and  _309
REMARK  126  A    between atoms: _309  and  _310
REMARK  127  A    between atoms: _315  and  _317
REMARK  128  A    between atoms: _317  and  _318
REMARK  129  A    between atoms: _317  and  _320
REMARK  130  A    between atoms: _320  and  _321
REMARK  131  A    between atoms: _321  and  _322
REMARK  132  A    between atoms: _322  and  _323
REMARK  133  A    between atoms: _332  and  _334
REMARK  134  A    between atoms: _334  and  _335
REMARK  135  A    between atoms: _334  and  _337
REMARK  136  A    between atoms: _337  and  _338
REMARK  137  A    between atoms: _341  and  _343
REMARK  138  A    between atoms: _343  and  _344
REMARK  139  A    between atoms: _343  and  _346
REMARK  140  A    between atoms: _346  and  _347
REMARK  141  A    between atoms: _350  and  _352
REMARK  142  A    between atoms: _352  and  _353
REMARK  143  A    between atoms: _352  and  _355
REMARK  144  A    between atoms: _355  and  _356
REMARK  145  A    between atoms: _359  and  _361
REMARK  146  A    between atoms: _361  and  _362
REMARK  147  A    between atoms: _361  and  _364
REMARK  148  A    between atoms: _364  and  _365
REMARK  149  A    between atoms: _368  and  _370
REMARK  150  A    between atoms: _370  and  _371
REMARK  151  A    between atoms: _373  and  _375
REMARK  152  A    between atoms: _375  and  _376
REMARK  153  A    between atoms: _379  and  _381
REMARK  154  A    between atoms: _381  and  _382
REMARK  155  A    between atoms: _381  and  _384
REMARK  156  A    between atoms: _384  and  _385
REMARK  157  A    between atoms: _388  and  _390
REMARK  158  A    between atoms: _390  and  _391
REMARK  159  A    between atoms: _390  and  _393
REMARK  160  A    between atoms: _393  and  _394
REMARK  161  A    between atoms: _397  and  _399
REMARK  162  A    between atoms: _399  and  _400
REMARK  163  A    between atoms: _399  and  _402
REMARK  164  A    between atoms: _402  and  _403
REMARK  165  A    between atoms: _406  and  _408
REMARK  166  A    between atoms: _408  and  _409
REMARK  167  A    between atoms: _408  and  _411
REMARK  168  A    between atoms: _414  and  _416
REMARK  169  A    between atoms: _416  and  _417
REMARK  170  A    between atoms: _416  and  _419
REMARK  171  A    between atoms: _419  and  _420
REMARK  172  A    between atoms: _423  and  _425
REMARK  173  A    between atoms: _425  and  _426
REMARK  174  A    between atoms: _425  and  _428
REMARK  175  A    between atoms: _428  and  _429
REMARK  176  A    between atoms: _429  and  _430
REMARK  177  A    between atoms: _430  and  _431
REMARK  178  A    between atoms: _431  and  _432
REMARK  179  A    between atoms: _436  and  _438
REMARK  180  A    between atoms: _438  and  _439
REMARK  181  A    between atoms: _438  and  _441
REMARK  182  A    between atoms: _441  and  _442
REMARK  183  A    between atoms: _442  and  _443
REMARK  184  A    between atoms: _445  and  _447
REMARK  185  A    between atoms: _447  and  _448
REMARK  186  A    between atoms: _447  and  _450
REMARK  187  A    between atoms: _450  and  _451
REMARK  188  A    between atoms: _454  and  _456
REMARK  189  A    between atoms: _456  and  _457
REMARK  190  A    between atoms: _459  and  _461
REMARK  191  A    between atoms: _461  and  _462
REMARK  192  A    between atoms: _464  and  _466
REMARK  193  A    between atoms: _466  and  _467
REMARK  194  A    between atoms: _466  and  _469
REMARK  195  A    between atoms: _469  and  _470
REMARK  196  A    between atoms: _473  and  _475
REMARK  197  A    between atoms: _475  and  _476
REMARK  198  A    between atoms: _478  and  _480
REMARK  199  A    between atoms: _480  and  _481
REMARK  200  A    between atoms: _483  and  _485
REMARK  201  A    between atoms: _485  and  _486
REMARK  202  A    between atoms: _485  and  _488
REMARK  203  A    between atoms: _488  and  _489
REMARK  204  A    between atoms: _495  and  _497
REMARK  205  A    between atoms: _497  and  _498
REMARK  206  A    between atoms: _497  and  _500
REMARK  207  A    between atoms: _500  and  _501
REMARK  208  A    between atoms: _504  and  _506
REMARK  209  A    between atoms: _506  and  _507
REMARK  210  A    between atoms: _506  and  _509
REMARK  211  A    between atoms: _509  and  _510
REMARK  212  A    between atoms: _510  and  _511
REMARK  213  A    between atoms: _516  and  _518
REMARK  214  A    between atoms: _518  and  _519
REMARK  215  A    between atoms: _518  and  _521
REMARK  216  A    between atoms: _521  and  _522
REMARK  217  A    between atoms: _526  and  _527
REMARK  218  A    between atoms: _532  and  _534
REMARK  219  A    between atoms: _534  and  _535
REMARK  220  A    between atoms: _534  and  _537
REMARK  221  A    between atoms: _537  and  _538
REMARK  222  A    between atoms: _542  and  _543
REMARK  223  A    between atoms: _548  and  _550
REMARK  224  A    between atoms: _550  and  _551
REMARK  225  A    between atoms: _550  and  _553
REMARK  226  A    between atoms: _553  and  _554
REMARK  227  A    between atoms: _560  and  _562
REMARK  228  A    between atoms: _562  and  _563
REMARK  229  A    between atoms: _562  and  _565
REMARK  230  A    between atoms: _565  and  _566
REMARK  231  A    between atoms: _571  and  _573
REMARK  232  A    between atoms: _573  and  _574
REMARK  233  A    between atoms: _573  and  _576
REMARK  234  A    between atoms: _579  and  _581
REMARK  235  A    between atoms: _581  and  _582
REMARK  236  A    between atoms: _581  and  _584
REMARK  237  A    between atoms: _584  and  _585
REMARK  238  A    between atoms: _588  and  _590
REMARK  239  A    between atoms: _590  and  _591
REMARK  240  A    between atoms: _593  and  _595
REMARK  241  A    between atoms: _595  and  _596
REMARK  242  A    between atoms: _595  and  _598
REMARK  243  A    between atoms: _598  and  _599
REMARK  244  A    between atoms: _599  and  _600
REMARK  245  A    between atoms: _600  and  _601
REMARK  246  A    between atoms: _610  and  _612
REMARK  247  A    between atoms: _612  and  _613
REMARK  248  A    between atoms: _612  and  _615
REMARK  249  A    between atoms: _615  and  _616
REMARK                            x       y       z     vdW  Elec       q    Type
REMARK                         _______ _______ _______ _____ _____    ______ ____
ROOT
ATOM      1  O   HOH     1     -12.551  17.882  14.780  0.00  0.00    +0.000 OA
ENDROOT
TORSDOF 0
REMARK  Name = ../refined-set-2016/1bwb/1bwb_pocket.pdb
REMARK  249 active torsions:
REMARK  status: ('A' for Active; 'I' for Inactive)
REMARK    1  A    between atoms: _1  and  _3
REMARK    2  A    between atoms: _3  and  _4
REMARK    3  A    between atoms: _3  and  _6
REMARK    4  A    between atoms: _6  and  _7
REMARK    5  A    between atoms: _7  and  _8
REMARK    6  A    between atoms: _8  and  _9
REMARK    7  A    between atoms: _18  and  _20
REMARK    8  A    between atoms: _20  and  _21
REMARK    9  A    between atoms: _20  and  _23
REMARK   10  A    between atoms: _23  and  _24
REMARK   11  A    between atoms: _27  and  _29
REMARK   12  A    between atoms: _29  and  _30
REMARK   13  A    between atoms: _29  and  _32
REMARK   14  A    between atoms: _32  and  _33
REMARK   15  A    between atoms: _36  and  _38
REMARK   16  A    between atoms: _38  and  _39
REMARK   17  A    between atoms: _38  and  _41
REMARK   18  A    between atoms: _41  and  _42
REMARK   19  A    between atoms: _45  and  _47
REMARK   20  A    between atoms: _47  and  _48
REMARK   21  A    between atoms: _47  and  _50
REMARK   22  A    between atoms: _50  and  _51
REMARK   23  A    between atoms: _54  and  _56
REMARK   24  A    between atoms: _56  and  _57
REMARK   25  A    between atoms: _59  and  _61
REMARK   26  A    between atoms: _61  and  _62
REMARK   27  A    between atoms: _65  and  _67
REMARK   28  A    between atoms: _67  and  _68
REMARK   29  A    between atoms: _67  and  _70
REMARK   30  A    between atoms: _70  and  _71
REMARK   31  A    between atoms: _74  and  _76
REMARK   32  A    between atoms: _76  and  _77
REMARK   33  A    between atoms: _76  and  _79
REMARK   34  A    between atoms: _79  and  _80
REMARK   35  A    between atoms: _83  and  _85
REMARK   36  A    between atoms: _85  and  _86
REMARK   37  A    between atoms: _85  and  _88
REMARK   38  A    between atoms: _88  and  _89
REMARK   39  A    between atoms: _92  and  _94
REMARK   40  A    between atoms: _94  and  _95
REMARK   41  A    between atoms: _94  and  _97
REMARK   42  A    between atoms: _100  and  _102
REMARK   43  A    between atoms: _102  and  _103
REMARK   44  A    between atoms: _102  and  _105
REMARK   45  A    between atoms: _105  and  _106
REMARK   46  A    between atoms: _109  and  _111
REMARK   47  A    between atoms: _111  and  _112
REMARK   48  A    between atoms: _111  and  _114
REMARK   49  A    between atoms: _114  and  _115
REMARK   50  A    between atoms: _115  and  _116
REMARK   51  A    between atoms: _116  and  _117
REMARK   52  A    between atoms: _117  and  _118
REMARK   53  A    between atoms: _122  and  _124
REMARK   54  A    between atoms: _124  and  _125
REMARK   55  A    between atoms: _124  and  _127
REMARK   56  A    between atoms: _127  and  _128
REMARK   57  A    between atoms: _128  and  _129
REMARK   58  A    between atoms: _131  and  _133
REMARK   59  A    between atoms: _133  and  _134
REMARK   60  A    between atoms: _133  and  _136
REMARK   61  A    between atoms: _136  and  _137
REMARK   62  A    between atoms: _140  and  _142
REMARK   63  A    between atoms: _142  and  _143
REMARK   64  A    between atoms: _145  and  _147
REMARK   65  A    between atoms: _147  and  _148
REMARK   66  A    between atoms: _150  and  _152
REMARK   67  A    between atoms: _152  and  _153
REMARK   68  A    between atoms: _152  and  _155
REMARK   69  A    between atoms: _155  and  _156
REMARK   70  A    between atoms: _159  and  _161
REMARK   71  A    between atoms: _161  and  _162
REMARK   72  A    between atoms: _164  and  _166
REMARK   73  A    between atoms: _166  and  _167
REMARK   74  A    between atoms: _169  and  _171
REMARK   75  A    between atoms: _171  and  _172
REMARK   76  A    between atoms: _171  and  _174
REMARK   77  A    between atoms: _174  and  _175
REMARK   78  A    between atoms: _181  and  _183
REMARK   79  A    between atoms: _183  and  _184
REMARK   80  A    between atoms: _183  and  _186
REMARK   81  A    between atoms: _186  and  _187
REMARK   82  A    between atoms: _190  and  _192
REMARK   83  A    between atoms: _192  and  _193
REMARK   84  A    between atoms: _192  and  _195
REMARK   85  A    between atoms: _198  and  _200
REMARK   86  A    between atoms: _200  and  _201
REMARK   87  A    between atoms: _200  and  _203
REMARK   88  A    between atoms: _203  and  _204
REMARK   89  A    between atoms: _204  and  _205
REMARK   90  A    between atoms: _210  and  _212
REMARK   91  A    between atoms: _212  and  _213
REMARK   92  A    between atoms: _212  and  _215
REMARK   93  A    between atoms: _215  and  _216
REMARK   94  A    between atoms: _220  and  _221
REMARK   95  A    between atoms: _226  and  _228
REMARK   96  A    between atoms: _228  and  _229
REMARK   97  A    between atoms: _228  and  _231
REMARK   98  A    between atoms: _231  and  _232
REMARK   99  A    between atoms: _236  and  _237
REMARK  100  A    between atoms: _242  and  _244
REMARK  101  A    between atoms: _244  and  _245
REMARK  102  A    between atoms: _244  and  _247
REMARK  103  A    between atoms: _247  and  _248
REMARK  104  A    between atoms: _254  and  _256
REMARK  105  A    between atoms: _256  and  _257
REMARK  106  A    between atoms: _256  and  _259
REMARK  107  A    between atoms: _259  and  _260
REMARK  108  A    between atoms: _265  and  _267
REMARK  109  A    between atoms: _267  and  _268
REMARK  110  A    between atoms: _267  and  _270
REMARK  111  A    between atoms: _273  and  _275
REMARK  112  A    between atoms: _275  and  _276
REMARK  113  A    between atoms: _275  and  _278
REMARK  114  A    between atoms: _278  and  _279
REMARK  115  A    between atoms: _282  and  _284
REMARK  116  A    between atoms: _284  and  _285
REMARK  117  A    between atoms: _287  and  _289
REMARK  118  A    between atoms: _289  and  _290
REMARK  119  A    between atoms: _289  and  _292
REMARK  120  A    between atoms: _292  and  _293
REMARK  121  A    between atoms: _293  and  _294
REMARK  122  A    between atoms: _294  and  _295
REMARK  123  A    between atoms: _304  and  _306
REMARK  124  A    between atoms: _306  and  _307
REMARK  125  A    between atoms: _306  and  _309
REMARK  126  A    between atoms: _309  and  _310
REMARK  127  A    between atoms: _315  and  _317
REMARK  128  A    between atoms: _317  and  _318
REMARK  129  A    between atoms: _317  and  _320
REMARK  130  A    between atoms: _320  and  _321
REMARK  131  A    between atoms: _321  and  _322
REMARK  132  A    between atoms: _322  and  _323
REMARK  133  A    between atoms: _332  and  _334
REMARK  134  A    between atoms: _334  and  _335
REMARK  135  A    between atoms: _334  and  _337
REMARK  136  A    between atoms: _337  and  _338
REMARK  137  A    between atoms: _341  and  _343
REMARK  138  A    between atoms: _343  and  _344
REMARK  139  A    between atoms: _343  and  _346
REMARK  140  A    between atoms: _346  and  _347
REMARK  141  A    between atoms: _350  and  _352
REMARK  142  A    between atoms: _352  and  _353
REMARK  143  A    between atoms: _352  and  _355
REMARK  144  A    between atoms: _355  and  _356
REMARK  145  A    between atoms: _359  and  _361
REMARK  146  A    between atoms: _361  and  _362
REMARK  147  A    between atoms: _361  and  _364
REMARK  148  A    between atoms: _364  and  _365
REMARK  149  A    between atoms: _368  and  _370
REMARK  150  A    between atoms: _370  and  _371
REMARK  151  A    between atoms: _373  and  _375
REMARK  152  A    between atoms: _375  and  _376
REMARK  153  A    between atoms: _379  and  _381
REMARK  154  A    between atoms: _381  and  _382
REMARK  155  A    between atoms: _381  and  _384
REMARK  156  A    between atoms: _384  and  _385
REMARK  157  A    between atoms: _388  and  _390
REMARK  158  A    between atoms: _390  and  _391
REMARK  159  A    between atoms: _390  and  _393
REMARK  160  A    between atoms: _393  and  _394
REMARK  161  A    between atoms: _397  and  _399
REMARK  162  A    between atoms: _399  and  _400
REMARK  163  A    between atoms: _399  and  _402
REMARK  164  A    between atoms: _402  and  _403
REMARK  165  A    between atoms: _406  and  _408
REMARK  166  A    between atoms: _408  and  _409
REMARK  167  A    between atoms: _408  and  _411
REMARK  168  A    between atoms: _414  and  _416
REMARK  169  A    between atoms: _416  and  _417
REMARK  170  A    between atoms: _416  and  _419
REMARK  171  A    between atoms: _419  and  _420
REMARK  172  A    between atoms: _423  and  _425
REMARK  173  A    between atoms: _425  and  _426
REMARK  174  A    between atoms: _425  and  _428
REMARK  175  A    between atoms: _428  and  _429
REMARK  176  A    between atoms: _429  and  _430
REMARK  177  A    between atoms: _430  and  _431
REMARK  178  A    between atoms: _431  and  _432
REMARK  179  A    between atoms: _436  and  _438
REMARK  180  A    between atoms: _438  and  _439
REMARK  181  A    between atoms: _438  and  _441
REMARK  182  A    between atoms: _441  and  _442
REMARK  183  A    between atoms: _442  and  _443
REMARK  184  A    between atoms: _445  and  _447
REMARK  185  A    between atoms: _447  and  _448
REMARK  186  A    between atoms: _447  and  _450
REMARK  187  A    between atoms: _450  and  _451
REMARK  188  A    between atoms: _454  and  _456
REMARK  189  A    between atoms: _456  and  _457
REMARK  190  A    between atoms: _459  and  _461
REMARK  191  A    between atoms: _461  and  _462
REMARK  192  A    between atoms: _464  and  _466
REMARK  193  A    between atoms: _466  and  _467
REMARK  194  A    between atoms: _466  and  _469
REMARK  195  A    between atoms: _469  and  _470
REMARK  196  A    between atoms: _473  and  _475
REMARK  197  A    between atoms: _475  and  _476
REMARK  198  A    between atoms: _478  and  _480
REMARK  199  A    between atoms: _480  and  _481
REMARK  200  A    between atoms: _483  and  _485
REMARK  201  A    between atoms: _485  and  _486
REMARK  202  A    between atoms: _485  and  _488
REMARK  203  A    between atoms: _488  and  _489
REMARK  204  A    between atoms: _495  and  _497
REMARK  205  A    between atoms: _497  and  _498
REMARK  206  A    between atoms: _497  and  _500
REMARK  207  A    between atoms: _500  and  _501
REMARK  208  A    between atoms: _504  and  _506
REMARK  209  A    between atoms: _506  and  _507
REMARK  210  A    between atoms: _506  and  _509
REMARK  211  A    between atoms: _509  and  _510
REMARK  212  A    between atoms: _510  and  _511
REMARK  213  A    between atoms: _516  and  _518
REMARK  214  A    between atoms: _518  and  _519
REMARK  215  A    between atoms: _518  and  _521
REMARK  216  A    between atoms: _521  and  _522
REMARK  217  A    between atoms: _526  and  _527
REMARK  218  A    between atoms: _532  and  _534
REMARK  219  A    between atoms: _534  and  _535
REMARK  220  A    between atoms: _534  and  _537
REMARK  221  A    between atoms: _537  and  _538
REMARK  222  A    between atoms: _542  and  _543
REMARK  223  A    between atoms: _548  and  _550
REMARK  224  A    between atoms: _550  and  _551
REMARK  225  A    between atoms: _550  and  _553
REMARK  226  A    between atoms: _553  and  _554
REMARK  227  A    between atoms: _560  and  _562
REMARK  228  A    between atoms: _562  and  _563
REMARK  229  A    between atoms: _562  and  _565
REMARK  230  A    between atoms: _565  and  _566
REMARK  231  A    between atoms: _571  and  _573
REMARK  232  A    between atoms: _573  and  _574
REMARK  233  A    between atoms: _573  and  _576
REMARK  234  A    between atoms: _579  and  _581
REMARK  235  A    between atoms: _581  and  _582
REMARK  236  A    between atoms: _581  and  _584
REMARK  237  A    between atoms: _584  and  _585
REMARK  238  A    between atoms: _588  and  _590
REMARK  239  A    between atoms: _590  and  _591
REMARK  240  A    between atoms: _593  and  _595
REMARK  241  A    between atoms: _595  and  _596
REMARK  242  A    between atoms: _595  and  _598
REMARK  243  A    between atoms: _598  and  _599
REMARK  244  A    between atoms: _599  and  _600
REMARK  245  A    between atoms: _600  and  _601
REMARK  246  A    between atoms: _610  and  _612
REMARK  247  A    between atoms: _612  and  _613
REMARK  248  A    between atoms: _612  and  _615
REMARK  249  A    between atoms: _615  and  _616
REMARK                            x       y       z     vdW  Elec       q    Type
REMARK                         _______ _______ _______ _____ _____    ______ ____
ROOT
ATOM      1  O   HOH     1      -6.843  19.911  22.670  0.00  0.00    +0.000 OA
ENDROOT
TORSDOF 0
REMARK  Name = ../refined-set-2016/1bwb/1bwb_pocket.pdb
REMARK  249 active torsions:
REMARK  status: ('A' for Active; 'I' for Inactive)
REMARK    1  A    between atoms: _1  and  _3
REMARK    2  A    between atoms: _3  and  _4
REMARK    3  A    between atoms: _3  and  _6
REMARK    4  A    between atoms: _6  and  _7
REMARK    5  A    between atoms: _7  and  _8
REMARK    6  A    between atoms: _8  and  _9
REMARK    7  A    between atoms: _18  and  _20
REMARK    8  A    between atoms: _20  and  _21
REMARK    9  A    between atoms: _20  and  _23
REMARK   10  A    between atoms: _23  and  _24
REMARK   11  A    between atoms: _27  and  _29
REMARK   12  A    between atoms: _29  and  _30
REMARK   13  A    between atoms: _29  and  _32
REMARK   14  A    between atoms: _32  and  _33
REMARK   15  A    between atoms: _36  and  _38
REMARK   16  A    between atoms: _38  and  _39
REMARK   17  A    between atoms: _38  and  _41
REMARK   18  A    between atoms: _41  and  _42
REMARK   19  A    between atoms: _45  and  _47
REMARK   20  A    between atoms: _47  and  _48
REMARK   21  A    between atoms: _47  and  _50
REMARK   22  A    between atoms: _50  and  _51
REMARK   23  A    between atoms: _54  and  _56
REMARK   24  A    between atoms: _56  and  _57
REMARK   25  A    between atoms: _59  and  _61
REMARK   26  A    between atoms: _61  and  _62
REMARK   27  A    between atoms: _65  and  _67
REMARK   28  A    between atoms: _67  and  _68
REMARK   29  A    between atoms: _67  and  _70
REMARK   30  A    between atoms: _70  and  _71
REMARK   31  A    between atoms: _74  and  _76
REMARK   32  A    between atoms: _76  and  _77
REMARK   33  A    between atoms: _76  and  _79
REMARK   34  A    between atoms: _79  and  _80
REMARK   35  A    between atoms: _83  and  _85
REMARK   36  A    between atoms: _85  and  _86
REMARK   37  A    between atoms: _85  and  _88
REMARK   38  A    between atoms: _88  and  _89
REMARK   39  A    between atoms: _92  and  _94
REMARK   40  A    between atoms: _94  and  _95
REMARK   41  A    between atoms: _94  and  _97
REMARK   42  A    between atoms: _100  and  _102
REMARK   43  A    between atoms: _102  and  _103
REMARK   44  A    between atoms: _102  and  _105
REMARK   45  A    between atoms: _105  and  _106
REMARK   46  A    between atoms: _109  and  _111
REMARK   47  A    between atoms: _111  and  _112
REMARK   48  A    between atoms: _111  and  _114
REMARK   49  A    between atoms: _114  and  _115
REMARK   50  A    between atoms: _115  and  _116
REMARK   51  A    between atoms: _116  and  _117
REMARK   52  A    between atoms: _117  and  _118
REMARK   53  A    between atoms: _122  and  _124
REMARK   54  A    between atoms: _124  and  _125
REMARK   55  A    between atoms: _124  and  _127
REMARK   56  A    between atoms: _127  and  _128
REMARK   57  A    between atoms: _128  and  _129
REMARK   58  A    between atoms: _131  and  _133
REMARK   59  A    between atoms: _133  and  _134
REMARK   60  A    between atoms: _133  and  _136
REMARK   61  A    between atoms: _136  and  _137
REMARK   62  A    between atoms: _140  and  _142
REMARK   63  A    between atoms: _142  and  _143
REMARK   64  A    between atoms: _145  and  _147
REMARK   65  A    between atoms: _147  and  _148
REMARK   66  A    between atoms: _150  and  _152
REMARK   67  A    between atoms: _152  and  _153
REMARK   68  A    between atoms: _152  and  _155
REMARK   69  A    between atoms: _155  and  _156
REMARK   70  A    between atoms: _159  and  _161
REMARK   71  A    between atoms: _161  and  _162
REMARK   72  A    between atoms: _164  and  _166
REMARK   73  A    between atoms: _166  and  _167
REMARK   74  A    between atoms: _169  and  _171
REMARK   75  A    between atoms: _171  and  _172
REMARK   76  A    between atoms: _171  and  _174
REMARK   77  A    between atoms: _174  and  _175
REMARK   78  A    between atoms: _181  and  _183
REMARK   79  A    between atoms: _183  and  _184
REMARK   80  A    between atoms: _183  and  _186
REMARK   81  A    between atoms: _186  and  _187
REMARK   82  A    between atoms: _190  and  _192
REMARK   83  A    between atoms: _192  and  _193
REMARK   84  A    between atoms: _192  and  _195
REMARK   85  A    between atoms: _198  and  _200
REMARK   86  A    between atoms: _200  and  _201
REMARK   87  A    between atoms: _200  and  _203
REMARK   88  A    between atoms: _203  and  _204
REMARK   89  A    between atoms: _204  and  _205
REMARK   90  A    between atoms: _210  and  _212
REMARK   91  A    between atoms: _212  and  _213
REMARK   92  A    between atoms: _212  and  _215
REMARK   93  A    between atoms: _215  and  _216
REMARK   94  A    between atoms: _220  and  _221
REMARK   95  A    between atoms: _226  and  _228
REMARK   96  A    between atoms: _228  and  _229
REMARK   97  A    between atoms: _228  and  _231
REMARK   98  A    between atoms: _231  and  _232
REMARK   99  A    between atoms: _236  and  _237
REMARK  100  A    between atoms: _242  and  _244
REMARK  101  A    between atoms: _244  and  _245
REMARK  102  A    between atoms: _244  and  _247
REMARK  103  A    between atoms: _247  and  _248
REMARK  104  A    between atoms: _254  and  _256
REMARK  105  A    between atoms: _256  and  _257
REMARK  106  A    between atoms: _256  and  _259
REMARK  107  A    between atoms: _259  and  _260
REMARK  108  A    between atoms: _265  and  _267
REMARK  109  A    between atoms: _267  and  _268
REMARK  110  A    between atoms: _267  and  _270
REMARK  111  A    between atoms: _273  and  _275
REMARK  112  A    between atoms: _275  and  _276
REMARK  113  A    between atoms: _275  and  _278
REMARK  114  A    between atoms: _278  and  _279
REMARK  115  A    between atoms: _282  and  _284
REMARK  116  A    between atoms: _284  and  _285
REMARK  117  A    between atoms: _287  and  _289
REMARK  118  A    between atoms: _289  and  _290
REMARK  119  A    between atoms: _289  and  _292
REMARK  120  A    between atoms: _292  and  _293
REMARK  121  A    between atoms: _293  and  _294
REMARK  122  A    between atoms: _294  and  _295
REMARK  123  A    between atoms: _304  and  _306
REMARK  124  A    between atoms: _306  and  _307
REMARK  125  A    between atoms: _306  and  _309
REMARK  126  A    between atoms: _309  and  _310
REMARK  127  A    between atoms: _315  and  _317
REMARK  128  A    between atoms: _317  and  _318
REMARK  129  A    between atoms: _317  and  _320
REMARK  130  A    between atoms: _320  and  _321
REMARK  131  A    between atoms: _321  and  _322
REMARK  132  A    between atoms: _322  and  _323
REMARK  133  A    between atoms: _332  and  _334
REMARK  134  A    between atoms: _334  and  _335
REMARK  135  A    between atoms: _334  and  _337
REMARK  136  A    between atoms: _337  and  _338
REMARK  137  A    between atoms: _341  and  _343
REMARK  138  A    between atoms: _343  and  _344
REMARK  139  A    between atoms: _343  and  _346
REMARK  140  A    between atoms: _346  and  _347
REMARK  141  A    between atoms: _350  and  _352
REMARK  142  A    between atoms: _352  and  _353
REMARK  143  A    between atoms: _352  and  _355
REMARK  144  A    between atoms: _355  and  _356
REMARK  145  A    between atoms: _359  and  _361
REMARK  146  A    between atoms: _361  and  _362
REMARK  147  A    between atoms: _361  and  _364
REMARK  148  A    between atoms: _364  and  _365
REMARK  149  A    between atoms: _368  and  _370
REMARK  150  A    between atoms: _370  and  _371
REMARK  151  A    between atoms: _373  and  _375
REMARK  152  A    between atoms: _375  and  _376
REMARK  153  A    between atoms: _379  and  _381
REMARK  154  A    between atoms: _381  and  _382
REMARK  155  A    between atoms: _381  and  _384
REMARK  156  A    between atoms: _384  and  _385
REMARK  157  A    between atoms: _388  and  _390
REMARK  158  A    between atoms: _390  and  _391
REMARK  159  A    between atoms: _390  and  _393
REMARK  160  A    between atoms: _393  and  _394
REMARK  161  A    between atoms: _397  and  _399
REMARK  162  A    between atoms: _399  and  _400
REMARK  163  A    between atoms: _399  and  _402
REMARK  164  A    between atoms: _402  and  _403
REMARK  165  A    between atoms: _406  and  _408
REMARK  166  A    between atoms: _408  and  _409
REMARK  167  A    between atoms: _408  and  _411
REMARK  168  A    between atoms: _414  and  _416
REMARK  169  A    between atoms: _416  and  _417
REMARK  170  A    between atoms: _416  and  _419
REMARK  171  A    between atoms: _419  and  _420
REMARK  172  A    between atoms: _423  and  _425
REMARK  173  A    between atoms: _425  and  _426
REMARK  174  A    between atoms: _425  and  _428
REMARK  175  A    between atoms: _428  and  _429
REMARK  176  A    between atoms: _429  and  _430
REMARK  177  A    between atoms: _430  and  _431
REMARK  178  A    between atoms: _431  and  _432
REMARK  179  A    between atoms: _436  and  _438
REMARK  180  A    between atoms: _438  and  _439
REMARK  181  A    between atoms: _438  and  _441
REMARK  182  A    between atoms: _441  and  _442
REMARK  183  A    between atoms: _442  and  _443
REMARK  184  A    between atoms: _445  and  _447
REMARK  185  A    between atoms: _447  and  _448
REMARK  186  A    between atoms: _447  and  _450
REMARK  187  A    between atoms: _450  and  _451
REMARK  188  A    between atoms: _454  and  _456
REMARK  189  A    between atoms: _456  and  _457
REMARK  190  A    between atoms: _459  and  _461
REMARK  191  A    between atoms: _461  and  _462
REMARK  192  A    between atoms: _464  and  _466
REMARK  193  A    between atoms: _466  and  _467
REMARK  194  A    between atoms: _466  and  _469
REMARK  195  A    between atoms: _469  and  _470
REMARK  196  A    between atoms: _473  and  _475
REMARK  197  A    between atoms: _475  and  _476
REMARK  198  A    between atoms: _478  and  _480
REMARK  199  A    between atoms: _480  and  _481
REMARK  200  A    between atoms: _483  and  _485
REMARK  201  A    between atoms: _485  and  _486
REMARK  202  A    between atoms: _485  and  _488
REMARK  203  A    between atoms: _488  and  _489
REMARK  204  A    between atoms: _495  and  _497
REMARK  205  A    between atoms: _497  and  _498
REMARK  206  A    between atoms: _497  and  _500
REMARK  207  A    between atoms: _500  and  _501
REMARK  208  A    between atoms: _504  and  _506
REMARK  209  A    between atoms: _506  and  _507
REMARK  210  A    between atoms: _506  and  _509
REMARK  211  A    between atoms: _509  and  _510
REMARK  212  A    between atoms: _510  and  _511
REMARK  213  A    between atoms: _516  and  _518
REMARK  214  A    between atoms: _518  and  _519
REMARK  215  A    between atoms: _518  and  _521
REMARK  216  A    between atoms: _521  and  _522
REMARK  217  A    between atoms: _526  and  _527
REMARK  218  A    between atoms: _532  and  _534
REMARK  219  A    between atoms: _534  and  _535
REMARK  220  A    between atoms: _534  and  _537
REMARK  221  A    between atoms: _537  and  _538
REMARK  222  A    between atoms: _542  and  _543
REMARK  223  A    between atoms: _548  and  _550
REMARK  224  A    between atoms: _550  and  _551
REMARK  225  A    between atoms: _550  and  _553
REMARK  226  A    between atoms: _553  and  _554
REMARK  227  A    between atoms: _560  and  _562
REMARK  228  A    between atoms: _562  and  _563
REMARK  229  A    between atoms: _562  and  _565
REMARK  230  A    between atoms: _565  and  _566
REMARK  231  A    between atoms: _571  and  _573
REMARK  232  A    between atoms: _573  and  _574
REMARK  233  A    between atoms: _573  and  _576
REMARK  234  A    between atoms: _579  and  _581
REMARK  235  A    between atoms: _581  and  _582
REMARK  236  A    between atoms: _581  and  _584
REMARK  237  A    between atoms: _584  and  _585
REMARK  238  A    between atoms: _588  and  _590
REMARK  239  A    between atoms: _590  and  _591
REMARK  240  A    between atoms: _593  and  _595
REMARK  241  A    between atoms: _595  and  _596
REMARK  242  A    between atoms: _595  and  _598
REMARK  243  A    between atoms: _598  and  _599
REMARK  244  A    between atoms: _599  and  _600
REMARK  245  A    between atoms: _600  and  _601
REMARK  246  A    between atoms: _610  and  _612
REMARK  247  A    between atoms: _612  and  _613
REMARK  248  A    between atoms: _612  and  _615
REMARK  249  A    between atoms: _615  and  _616
REMARK                            x       y       z     vdW  Elec       q    Type
REMARK                         _______ _______ _______ _____ _____    ______ ____
ROOT
ATOM      1  O   HOH     1      -5.873  19.426  14.151  0.00  0.00    +0.000 OA
ENDROOT
TORSDOF 0
REMARK  Name = ../refined-set-2016/1bwb/1bwb_pocket.pdb
REMARK  249 active torsions:
REMARK  status: ('A' for Active; 'I' for Inactive)
REMARK    1  A    between atoms: _1  and  _3
REMARK    2  A    between atoms: _3  and  _4
REMARK    3  A    between atoms: _3  and  _6
REMARK    4  A    between atoms: _6  and  _7
REMARK    5  A    between atoms: _7  and  _8
REMARK    6  A    between atoms: _8  and  _9
REMARK    7  A    between atoms: _18  and  _20
REMARK    8  A    between atoms: _20  and  _21
REMARK    9  A    between atoms: _20  and  _23
REMARK   10  A    between atoms: _23  and  _24
REMARK   11  A    between atoms: _27  and  _29
REMARK   12  A    between atoms: _29  and  _30
REMARK   13  A    between atoms: _29  and  _32
REMARK   14  A    between atoms: _32  and  _33
REMARK   15  A    between atoms: _36  and  _38
REMARK   16  A    between atoms: _38  and  _39
REMARK   17  A    between atoms: _38  and  _41
REMARK   18  A    between atoms: _41  and  _42
REMARK   19  A    between atoms: _45  and  _47
REMARK   20  A    between atoms: _47  and  _48
REMARK   21  A    between atoms: _47  and  _50
REMARK   22  A    between atoms: _50  and  _51
REMARK   23  A    between atoms: _54  and  _56
REMARK   24  A    between atoms: _56  and  _57
REMARK   25  A    between atoms: _59  and  _61
REMARK   26  A    between atoms: _61  and  _62
REMARK   27  A    between atoms: _65  and  _67
REMARK   28  A    between atoms: _67  and  _68
REMARK   29  A    between atoms: _67  and  _70
REMARK   30  A    between atoms: _70  and  _71
REMARK   31  A    between atoms: _74  and  _76
REMARK   32  A    between atoms: _76  and  _77
REMARK   33  A    between atoms: _76  and  _79
REMARK   34  A    between atoms: _79  and  _80
REMARK   35  A    between atoms: _83  and  _85
REMARK   36  A    between atoms: _85  and  _86
REMARK   37  A    between atoms: _85  and  _88
REMARK   38  A    between atoms: _88  and  _89
REMARK   39  A    between atoms: _92  and  _94
REMARK   40  A    between atoms: _94  and  _95
REMARK   41  A    between atoms: _94  and  _97
REMARK   42  A    between atoms: _100  and  _102
REMARK   43  A    between atoms: _102  and  _103
REMARK   44  A    between atoms: _102  and  _105
REMARK   45  A    between atoms: _105  and  _106
REMARK   46  A    between atoms: _109  and  _111
REMARK   47  A    between atoms: _111  and  _112
REMARK   48  A    between atoms: _111  and  _114
REMARK   49  A    between atoms: _114  and  _115
REMARK   50  A    between atoms: _115  and  _116
REMARK   51  A    between atoms: _116  and  _117
REMARK   52  A    between atoms: _117  and  _118
REMARK   53  A    between atoms: _122  and  _124
REMARK   54  A    between atoms: _124  and  _125
REMARK   55  A    between atoms: _124  and  _127
REMARK   56  A    between atoms: _127  and  _128
REMARK   57  A    between atoms: _128  and  _129
REMARK   58  A    between atoms: _131  and  _133
REMARK   59  A    between atoms: _133  and  _134
REMARK   60  A    between atoms: _133  and  _136
REMARK   61  A    between atoms: _136  and  _137
REMARK   62  A    between atoms: _140  and  _142
REMARK   63  A    between atoms: _142  and  _143
REMARK   64  A    between atoms: _145  and  _147
REMARK   65  A    between atoms: _147  and  _148
REMARK   66  A    between atoms: _150  and  _152
REMARK   67  A    between atoms: _152  and  _153
REMARK   68  A    between atoms: _152  and  _155
REMARK   69  A    between atoms: _155  and  _156
REMARK   70  A    between atoms: _159  and  _161
REMARK   71  A    between atoms: _161  and  _162
REMARK   72  A    between atoms: _164  and  _166
REMARK   73  A    between atoms: _166  and  _167
REMARK   74  A    between atoms: _169  and  _171
REMARK   75  A    between atoms: _171  and  _172
REMARK   76  A    between atoms: _171  and  _174
REMARK   77  A    between atoms: _174  and  _175
REMARK   78  A    between atoms: _181  and  _183
REMARK   79  A    between atoms: _183  and  _184
REMARK   80  A    between atoms: _183  and  _186
REMARK   81  A    between atoms: _186  and  _187
REMARK   82  A    between atoms: _190  and  _192
REMARK   83  A    between atoms: _192  and  _193
REMARK   84  A    between atoms: _192  and  _195
REMARK   85  A    between atoms: _198  and  _200
REMARK   86  A    between atoms: _200  and  _201
REMARK   87  A    between atoms: _200  and  _203
REMARK   88  A    between atoms: _203  and  _204
REMARK   89  A    between atoms: _204  and  _205
REMARK   90  A    between atoms: _210  and  _212
REMARK   91  A    between atoms: _212  and  _213
REMARK   92  A    between atoms: _212  and  _215
REMARK   93  A    between atoms: _215  and  _216
REMARK   94  A    between atoms: _220  and  _221
REMARK   95  A    between atoms: _226  and  _228
REMARK   96  A    between atoms: _228  and  _229
REMARK   97  A    between atoms: _228  and  _231
REMARK   98  A    between atoms: _231  and  _232
REMARK   99  A    between atoms: _236  and  _237
REMARK  100  A    between atoms: _242  and  _244
REMARK  101  A    between atoms: _244  and  _245
REMARK  102  A    between atoms: _244  and  _247
REMARK  103  A    between atoms: _247  and  _248
REMARK  104  A    between atoms: _254  and  _256
REMARK  105  A    between atoms: _256  and  _257
REMARK  106  A    between atoms: _256  and  _259
REMARK  107  A    between atoms: _259  and  _260
REMARK  108  A    between atoms: _265  and  _267
REMARK  109  A    between atoms: _267  and  _268
REMARK  110  A    between atoms: _267  and  _270
REMARK  111  A    between atoms: _273  and  _275
REMARK  112  A    between atoms: _275  and  _276
REMARK  113  A    between atoms: _275  and  _278
REMARK  114  A    between atoms: _278  and  _279
REMARK  115  A    between atoms: _282  and  _284
REMARK  116  A    between atoms: _284  and  _285
REMARK  117  A    between atoms: _287  and  _289
REMARK  118  A    between atoms: _289  and  _290
REMARK  119  A    between atoms: _289  and  _292
REMARK  120  A    between atoms: _292  and  _293
REMARK  121  A    between atoms: _293  and  _294
REMARK  122  A    between atoms: _294  and  _295
REMARK  123  A    between atoms: _304  and  _306
REMARK  124  A    between atoms: _306  and  _307
REMARK  125  A    between atoms: _306  and  _309
REMARK  126  A    between atoms: _309  and  _310
REMARK  127  A    between atoms: _315  and  _317
REMARK  128  A    between atoms: _317  and  _318
REMARK  129  A    between atoms: _317  and  _320
REMARK  130  A    between atoms: _320  and  _321
REMARK  131  A    between atoms: _321  and  _322
REMARK  132  A    between atoms: _322  and  _323
REMARK  133  A    between atoms: _332  and  _334
REMARK  134  A    between atoms: _334  and  _335
REMARK  135  A    between atoms: _334  and  _337
REMARK  136  A    between atoms: _337  and  _338
REMARK  137  A    between atoms: _341  and  _343
REMARK  138  A    between atoms: _343  and  _344
REMARK  139  A    between atoms: _343  and  _346
REMARK  140  A    between atoms: _346  and  _347
REMARK  141  A    between atoms: _350  and  _352
REMARK  142  A    between atoms: _352  and  _353
REMARK  143  A    between atoms: _352  and  _355
REMARK  144  A    between atoms: _355  and  _356
REMARK  145  A    between atoms: _359  and  _361
REMARK  146  A    between atoms: _361  and  _362
REMARK  147  A    between atoms: _361  and  _364
REMARK  148  A    between atoms: _364  and  _365
REMARK  149  A    between atoms: _368  and  _370
REMARK  150  A    between atoms: _370  and  _371
REMARK  151  A    between atoms: _373  and  _375
REMARK  152  A    between atoms: _375  and  _376
REMARK  153  A    between atoms: _379  and  _381
REMARK  154  A    between atoms: _381  and  _382
REMARK  155  A    between atoms: _381  and  _384
REMARK  156  A    between atoms: _384  and  _385
REMARK  157  A    between atoms: _388  and  _390
REMARK  158  A    between atoms: _390  and  _391
REMARK  159  A    between atoms: _390  and  _393
REMARK  160  A    between atoms: _393  and  _394
REMARK  161  A    between atoms: _397  and  _399
REMARK  162  A    between atoms: _399  and  _400
REMARK  163  A    between atoms: _399  and  _402
REMARK  164  A    between atoms: _402  and  _403
REMARK  165  A    between atoms: _406  and  _408
REMARK  166  A    between atoms: _408  and  _409
REMARK  167  A    between atoms: _408  and  _411
REMARK  168  A    between atoms: _414  and  _416
REMARK  169  A    between atoms: _416  and  _417
REMARK  170  A    between atoms: _416  and  _419
REMARK  171  A    between atoms: _419  and  _420
REMARK  172  A    between atoms: _423  and  _425
REMARK  173  A    between atoms: _425  and  _426
REMARK  174  A    between atoms: _425  and  _428
REMARK  175  A    between atoms: _428  and  _429
REMARK  176  A    between atoms: _429  and  _430
REMARK  177  A    between atoms: _430  and  _431
REMARK  178  A    between atoms: _431  and  _432
REMARK  179  A    between atoms: _436  and  _438
REMARK  180  A    between atoms: _438  and  _439
REMARK  181  A    between atoms: _438  and  _441
REMARK  182  A    between atoms: _441  and  _442
REMARK  183  A    between atoms: _442  and  _443
REMARK  184  A    between atoms: _445  and  _447
REMARK  185  A    between atoms: _447  and  _448
REMARK  186  A    between atoms: _447  and  _450
REMARK  187  A    between atoms: _450  and  _451
REMARK  188  A    between atoms: _454  and  _456
REMARK  189  A    between atoms: _456  and  _457
REMARK  190  A    between atoms: _459  and  _461
REMARK  191  A    between atoms: _461  and  _462
REMARK  192  A    between atoms: _464  and  _466
REMARK  193  A    between atoms: _466  and  _467
REMARK  194  A    between atoms: _466  and  _469
REMARK  195  A    between atoms: _469  and  _470
REMARK  196  A    between atoms: _473  and  _475
REMARK  197  A    between atoms: _475  and  _476
REMARK  198  A    between atoms: _478  and  _480
REMARK  199  A    between atoms: _480  and  _481
REMARK  200  A    between atoms: _483  and  _485
REMARK  201  A    between atoms: _485  and  _486
REMARK  202  A    between atoms: _485  and  _488
REMARK  203  A    between atoms: _488  and  _489
REMARK  204  A    between atoms: _495  and  _497
REMARK  205  A    between atoms: _497  and  _498
REMARK  206  A    between atoms: _497  and  _500
REMARK  207  A    between atoms: _500  and  _501
REMARK  208  A    between atoms: _504  and  _506
REMARK  209  A    between atoms: _506  and  _507
REMARK  210  A    between atoms: _506  and  _509
REMARK  211  A    between atoms: _509  and  _510
REMARK  212  A    between atoms: _510  and  _511
REMARK  213  A    between atoms: _516  and  _518
REMARK  214  A    between atoms: _518  and  _519
REMARK  215  A    between atoms: _518  and  _521
REMARK  216  A    between atoms: _521  and  _522
REMARK  217  A    between atoms: _526  and  _527
REMARK  218  A    between atoms: _532  and  _534
REMARK  219  A    between atoms: _534  and  _535
REMARK  220  A    between atoms: _534  and  _537
REMARK  221  A    between atoms: _537  and  _538
REMARK  222  A    between atoms: _542  and  _543
REMARK  223  A    between atoms: _548  and  _550
REMARK  224  A    between atoms: _550  and  _551
REMARK  225  A    between atoms: _550  and  _553
REMARK  226  A    between atoms: _553  and  _554
REMARK  227  A    between atoms: _560  and  _562
REMARK  228  A    between atoms: _562  and  _563
REMARK  229  A    between atoms: _562  and  _565
REMARK  230  A    between atoms: _565  and  _566
REMARK  231  A    between atoms: _571  and  _573
REMARK  232  A    between atoms: _573  and  _574
REMARK  233  A    between atoms: _573  and  _576
REMARK  234  A    between atoms: _579  and  _581
REMARK  235  A    between atoms: _581  and  _582
REMARK  236  A    between atoms: _581  and  _584
REMARK  237  A    between atoms: _584  and  _585
REMARK  238  A    between atoms: _588  and  _590
REMARK  239  A    between atoms: _590  and  _591
REMARK  240  A    between atoms: _593  and  _595
REMARK  241  A    between atoms: _595  and  _596
REMARK  242  A    between atoms: _595  and  _598
REMARK  243  A    between atoms: _598  and  _599
REMARK  244  A    between atoms: _599  and  _600
REMARK  245  A    between atoms: _600  and  _601
REMARK  246  A    between atoms: _610  and  _612
REMARK  247  A    between atoms: _612  and  _613
REMARK  248  A    between atoms: _612  and  _615
REMARK  249  A    between atoms: _615  and  _616
REMARK                            x       y       z     vdW  Elec       q    Type
REMARK                         _______ _______ _______ _____ _____    ______ ____
ROOT
ATOM      1  O   HOH     1      -9.944   6.994  25.463  0.00  0.00    +0.000 OA
ENDROOT
TORSDOF 0
REMARK  Name = ../refined-set-2016/1bwb/1bwb_pocket.pdb
REMARK  249 active torsions:
REMARK  status: ('A' for Active; 'I' for Inactive)
REMARK    1  A    between atoms: _1  and  _3
REMARK    2  A    between atoms: _3  and  _4
REMARK    3  A    between atoms: _3  and  _6
REMARK    4  A    between atoms: _6  and  _7
REMARK    5  A    between atoms: _7  and  _8
REMARK    6  A    between atoms: _8  and  _9
REMARK    7  A    between atoms: _18  and  _20
REMARK    8  A    between atoms: _20  and  _21
REMARK    9  A    between atoms: _20  and  _23
REMARK   10  A    between atoms: _23  and  _24
REMARK   11  A    between atoms: _27  and  _29
REMARK   12  A    between atoms: _29  and  _30
REMARK   13  A    between atoms: _29  and  _32
REMARK   14  A    between atoms: _32  and  _33
REMARK   15  A    between atoms: _36  and  _38
REMARK   16  A    between atoms: _38  and  _39
REMARK   17  A    between atoms: _38  and  _41
REMARK   18  A    between atoms: _41  and  _42
REMARK   19  A    between atoms: _45  and  _47
REMARK   20  A    between atoms: _47  and  _48
REMARK   21  A    between atoms: _47  and  _50
REMARK   22  A    between atoms: _50  and  _51
REMARK   23  A    between atoms: _54  and  _56
REMARK   24  A    between atoms: _56  and  _57
REMARK   25  A    between atoms: _59  and  _61
REMARK   26  A    between atoms: _61  and  _62
REMARK   27  A    between atoms: _65  and  _67
REMARK   28  A    between atoms: _67  and  _68
REMARK   29  A    between atoms: _67  and  _70
REMARK   30  A    between atoms: _70  and  _71
REMARK   31  A    between atoms: _74  and  _76
REMARK   32  A    between atoms: _76  and  _77
REMARK   33  A    between atoms: _76  and  _79
REMARK   34  A    between atoms: _79  and  _80
REMARK   35  A    between atoms: _83  and  _85
REMARK   36  A    between atoms: _85  and  _86
REMARK   37  A    between atoms: _85  and  _88
REMARK   38  A    between atoms: _88  and  _89
REMARK   39  A    between atoms: _92  and  _94
REMARK   40  A    between atoms: _94  and  _95
REMARK   41  A    between atoms: _94  and  _97
REMARK   42  A    between atoms: _100  and  _102
REMARK   43  A    between atoms: _102  and  _103
REMARK   44  A    between atoms: _102  and  _105
REMARK   45  A    between atoms: _105  and  _106
REMARK   46  A    between atoms: _109  and  _111
REMARK   47  A    between atoms: _111  and  _112
REMARK   48  A    between atoms: _111  and  _114
REMARK   49  A    between atoms: _114  and  _115
REMARK   50  A    between atoms: _115  and  _116
REMARK   51  A    between atoms: _116  and  _117
REMARK   52  A    between atoms: _117  and  _118
REMARK   53  A    between atoms: _122  and  _124
REMARK   54  A    between atoms: _124  and  _125
REMARK   55  A    between atoms: _124  and  _127
REMARK   56  A    between atoms: _127  and  _128
REMARK   57  A    between atoms: _128  and  _129
REMARK   58  A    between atoms: _131  and  _133
REMARK   59  A    between atoms: _133  and  _134
REMARK   60  A    between atoms: _133  and  _136
REMARK   61  A    between atoms: _136  and  _137
REMARK   62  A    between atoms: _140  and  _142
REMARK   63  A    between atoms: _142  and  _143
REMARK   64  A    between atoms: _145  and  _147
REMARK   65  A    between atoms: _147  and  _148
REMARK   66  A    between atoms: _150  and  _152
REMARK   67  A    between atoms: _152  and  _153
REMARK   68  A    between atoms: _152  and  _155
REMARK   69  A    between atoms: _155  and  _156
REMARK   70  A    between atoms: _159  and  _161
REMARK   71  A    between atoms: _161  and  _162
REMARK   72  A    between atoms: _164  and  _166
REMARK   73  A    between atoms: _166  and  _167
REMARK   74  A    between atoms: _169  and  _171
REMARK   75  A    between atoms: _171  and  _172
REMARK   76  A    between atoms: _171  and  _174
REMARK   77  A    between atoms: _174  and  _175
REMARK   78  A    between atoms: _181  and  _183
REMARK   79  A    between atoms: _183  and  _184
REMARK   80  A    between atoms: _183  and  _186
REMARK   81  A    between atoms: _186  and  _187
REMARK   82  A    between atoms: _190  and  _192
REMARK   83  A    between atoms: _192  and  _193
REMARK   84  A    between atoms: _192  and  _195
REMARK   85  A    between atoms: _198  and  _200
REMARK   86  A    between atoms: _200  and  _201
REMARK   87  A    between atoms: _200  and  _203
REMARK   88  A    between atoms: _203  and  _204
REMARK   89  A    between atoms: _204  and  _205
REMARK   90  A    between atoms: _210  and  _212
REMARK   91  A    between atoms: _212  and  _213
REMARK   92  A    between atoms: _212  and  _215
REMARK   93  A    between atoms: _215  and  _216
REMARK   94  A    between atoms: _220  and  _221
REMARK   95  A    between atoms: _226  and  _228
REMARK   96  A    between atoms: _228  and  _229
REMARK   97  A    between atoms: _228  and  _231
REMARK   98  A    between atoms: _231  and  _232
REMARK   99  A    between atoms: _236  and  _237
REMARK  100  A    between atoms: _242  and  _244
REMARK  101  A    between atoms: _244  and  _245
REMARK  102  A    between atoms: _244  and  _247
REMARK  103  A    between atoms: _247  and  _248
REMARK  104  A    between atoms: _254  and  _256
REMARK  105  A    between atoms: _256  and  _257
REMARK  106  A    between atoms: _256  and  _259
REMARK  107  A    between atoms: _259  and  _260
REMARK  108  A    between atoms: _265  and  _267
REMARK  109  A    between atoms: _267  and  _268
REMARK  110  A    between atoms: _267  and  _270
REMARK  111  A    between atoms: _273  and  _275
REMARK  112  A    between atoms: _275  and  _276
REMARK  113  A    between atoms: _275  and  _278
REMARK  114  A    between atoms: _278  and  _279
REMARK  115  A    between atoms: _282  and  _284
REMARK  116  A    between atoms: _284  and  _285
REMARK  117  A    between atoms: _287  and  _289
REMARK  118  A    between atoms: _289  and  _290
REMARK  119  A    between atoms: _289  and  _292
REMARK  120  A    between atoms: _292  and  _293
REMARK  121  A    between atoms: _293  and  _294
REMARK  122  A    between atoms: _294  and  _295
REMARK  123  A    between atoms: _304  and  _306
REMARK  124  A    between atoms: _306  and  _307
REMARK  125  A    between atoms: _306  and  _309
REMARK  126  A    between atoms: _309  and  _310
REMARK  127  A    between atoms: _315  and  _317
REMARK  128  A    between atoms: _317  and  _318
REMARK  129  A    between atoms: _317  and  _320
REMARK  130  A    between atoms: _320  and  _321
REMARK  131  A    between atoms: _321  and  _322
REMARK  132  A    between atoms: _322  and  _323
REMARK  133  A    between atoms: _332  and  _334
REMARK  134  A    between atoms: _334  and  _335
REMARK  135  A    between atoms: _334  and  _337
REMARK  136  A    between atoms: _337  and  _338
REMARK  137  A    between atoms: _341  and  _343
REMARK  138  A    between atoms: _343  and  _344
REMARK  139  A    between atoms: _343  and  _346
REMARK  140  A    between atoms: _346  and  _347
REMARK  141  A    between atoms: _350  and  _352
REMARK  142  A    between atoms: _352  and  _353
REMARK  143  A    between atoms: _352  and  _355
REMARK  144  A    between atoms: _355  and  _356
REMARK  145  A    between atoms: _359  and  _361
REMARK  146  A    between atoms: _361  and  _362
REMARK  147  A    between atoms: _361  and  _364
REMARK  148  A    between atoms: _364  and  _365
REMARK  149  A    between atoms: _368  and  _370
REMARK  150  A    between atoms: _370  and  _371
REMARK  151  A    between atoms: _373  and  _375
REMARK  152  A    between atoms: _375  and  _376
REMARK  153  A    between atoms: _379  and  _381
REMARK  154  A    between atoms: _381  and  _382
REMARK  155  A    between atoms: _381  and  _384
REMARK  156  A    between atoms: _384  and  _385
REMARK  157  A    between atoms: _388  and  _390
REMARK  158  A    between atoms: _390  and  _391
REMARK  159  A    between atoms: _390  and  _393
REMARK  160  A    between atoms: _393  and  _394
REMARK  161  A    between atoms: _397  and  _399
REMARK  162  A    between atoms: _399  and  _400
REMARK  163  A    between atoms: _399  and  _402
REMARK  164  A    between atoms: _402  and  _403
REMARK  165  A    between atoms: _406  and  _408
REMARK  166  A    between atoms: _408  and  _409
REMARK  167  A    between atoms: _408  and  _411
REMARK  168  A    between atoms: _414  and  _416
REMARK  169  A    between atoms: _416  and  _417
REMARK  170  A    between atoms: _416  and  _419
REMARK  171  A    between atoms: _419  and  _420
REMARK  172  A    between atoms: _423  and  _425
REMARK  173  A    between atoms: _425  and  _426
REMARK  174  A    between atoms: _425  and  _428
REMARK  175  A    between atoms: _428  and  _429
REMARK  176  A    between atoms: _429  and  _430
REMARK  177  A    between atoms: _430  and  _431
REMARK  178  A    between atoms: _431  and  _432
REMARK  179  A    between atoms: _436  and  _438
REMARK  180  A    between atoms: _438  and  _439
REMARK  181  A    between atoms: _438  and  _441
REMARK  182  A    between atoms: _441  and  _442
REMARK  183  A    between atoms: _442  and  _443
REMARK  184  A    between atoms: _445  and  _447
REMARK  185  A    between atoms: _447  and  _448
REMARK  186  A    between atoms: _447  and  _450
REMARK  187  A    between atoms: _450  and  _451
REMARK  188  A    between atoms: _454  and  _456
REMARK  189  A    between atoms: _456  and  _457
REMARK  190  A    between atoms: _459  and  _461
REMARK  191  A    between atoms: _461  and  _462
REMARK  192  A    between atoms: _464  and  _466
REMARK  193  A    between atoms: _466  and  _467
REMARK  194  A    between atoms: _466  and  _469
REMARK  195  A    between atoms: _469  and  _470
REMARK  196  A    between atoms: _473  and  _475
REMARK  197  A    between atoms: _475  and  _476
REMARK  198  A    between atoms: _478  and  _480
REMARK  199  A    between atoms: _480  and  _481
REMARK  200  A    between atoms: _483  and  _485
REMARK  201  A    between atoms: _485  and  _486
REMARK  202  A    between atoms: _485  and  _488
REMARK  203  A    between atoms: _488  and  _489
REMARK  204  A    between atoms: _495  and  _497
REMARK  205  A    between atoms: _497  and  _498
REMARK  206  A    between atoms: _497  and  _500
REMARK  207  A    between atoms: _500  and  _501
REMARK  208  A    between atoms: _504  and  _506
REMARK  209  A    between atoms: _506  and  _507
REMARK  210  A    between atoms: _506  and  _509
REMARK  211  A    between atoms: _509  and  _510
REMARK  212  A    between atoms: _510  and  _511
REMARK  213  A    between atoms: _516  and  _518
REMARK  214  A    between atoms: _518  and  _519
REMARK  215  A    between atoms: _518  and  _521
REMARK  216  A    between atoms: _521  and  _522
REMARK  217  A    between atoms: _526  and  _527
REMARK  218  A    between atoms: _532  and  _534
REMARK  219  A    between atoms: _534  and  _535
REMARK  220  A    between atoms: _534  and  _537
REMARK  221  A    between atoms: _537  and  _538
REMARK  222  A    between atoms: _542  and  _543
REMARK  223  A    between atoms: _548  and  _550
REMARK  224  A    between atoms: _550  and  _551
REMARK  225  A    between atoms: _550  and  _553
REMARK  226  A    between atoms: _553  and  _554
REMARK  227  A    between atoms: _560  and  _562
REMARK  228  A    between atoms: _562  and  _563
REMARK  229  A    between atoms: _562  and  _565
REMARK  230  A    between atoms: _565  and  _566
REMARK  231  A    between atoms: _571  and  _573
REMARK  232  A    between atoms: _573  and  _574
REMARK  233  A    between atoms: _573  and  _576
REMARK  234  A    between atoms: _579  and  _581
REMARK  235  A    between atoms: _581  and  _582
REMARK  236  A    between atoms: _581  and  _584
REMARK  237  A    between atoms: _584  and  _585
REMARK  238  A    between atoms: _588  and  _590
REMARK  239  A    between atoms: _590  and  _591
REMARK  240  A    between atoms: _593  and  _595
REMARK  241  A    between atoms: _595  and  _596
REMARK  242  A    between atoms: _595  and  _598
REMARK  243  A    between atoms: _598  and  _599
REMARK  244  A    between atoms: _599  and  _600
REMARK  245  A    between atoms: _600  and  _601
REMARK  246  A    between atoms: _610  and  _612
REMARK  247  A    between atoms: _612  and  _613
REMARK  248  A    between atoms: _612  and  _615
REMARK  249  A    between atoms: _615  and  _616
REMARK                            x       y       z     vdW  Elec       q    Type
REMARK                         _______ _______ _______ _____ _____    ______ ____
ROOT
ATOM      1  O   HOH     1      -9.580  24.370  16.221  0.00  0.00    +0.000 OA
ENDROOT
TORSDOF 0
