REMARK  Name = ../refined-set-2016/4np3/4np3_pocket.pdb
REMARK  108 active torsions:
REMARK  status: ('A' for Active; 'I' for Inactive)
REMARK    1  A    between atoms: _1  and  _3
REMARK    2  A    between atoms: _3  and  _4
REMARK    3  A    between atoms: _3  and  _6
REMARK    4  A    between atoms: _6  and  _7
REMARK    5  A    between atoms: _10  and  _12
REMARK    6  A    between atoms: _12  and  _13
REMARK    7  A    between atoms: _12  and  _15
REMARK    8  A    between atoms: _15  and  _16
REMARK    9  A    between atoms: _19  and  _21
REMARK   10  A    between atoms: _21  and  _22
REMARK   11  A    between atoms: _21  and  _24
REMARK   12  A    between atoms: _24  and  _25
REMARK   13  A    between atoms: _30  and  _32
REMARK   14  A    between atoms: _32  and  _33
REMARK   15  A    between atoms: _32  and  _35
REMARK   16  A    between atoms: _38  and  _40
REMARK   17  A    between atoms: _40  and  _41
REMARK   18  A    between atoms: _40  and  _43
REMARK   19  A    between atoms: _43  and  _44
REMARK   20  A    between atoms: _47  and  _49
REMARK   21  A    between atoms: _49  and  _50
REMARK   22  A    between atoms: _49  and  _52
REMARK   23  A    between atoms: _54  and  _56
REMARK   24  A    between atoms: _56  and  _57
REMARK   25  A    between atoms: _56  and  _59
REMARK   26  A    between atoms: _59  and  _60
REMARK   27  A    between atoms: _65  and  _67
REMARK   28  A    between atoms: _67  and  _68
REMARK   29  A    between atoms: _67  and  _70
REMARK   30  A    between atoms: _73  and  _75
REMARK   31  A    between atoms: _75  and  _76
REMARK   32  A    between atoms: _75  and  _78
REMARK   33  A    between atoms: _78  and  _79
REMARK   34  A    between atoms: _79  and  _80
REMARK   35  A    between atoms: _83  and  _85
REMARK   36  A    between atoms: _85  and  _86
REMARK   37  A    between atoms: _85  and  _88
REMARK   38  A    between atoms: _88  and  _89
REMARK   39  A    between atoms: _89  and  _90
REMARK   40  A    between atoms: _90  and  _91
REMARK   41  A    between atoms: _91  and  _92
REMARK   42  A    between atoms: _96  and  _98
REMARK   43  A    between atoms: _98  and  _99
REMARK   44  A    between atoms: _98  and  _101
REMARK   45  A    between atoms: _101  and  _102
REMARK   46  A    between atoms: _107  and  _109
REMARK   47  A    between atoms: _109  and  _110
REMARK   48  A    between atoms: _112  and  _114
REMARK   49  A    between atoms: _114  and  _115
REMARK   50  A    between atoms: _114  and  _117
REMARK   51  A    between atoms: _117  and  _118
REMARK   52  A    between atoms: _118  and  _119
REMARK   53  A    between atoms: _119  and  _120
REMARK   54  A    between atoms: _129  and  _131
REMARK   55  A    between atoms: _131  and  _132
REMARK   56  A    between atoms: _131  and  _134
REMARK   57  A    between atoms: _134  and  _135
REMARK   58  A    between atoms: _140  and  _141
REMARK   59  A    between atoms: _143  and  _145
REMARK   60  A    between atoms: _145  and  _146
REMARK   61  A    between atoms: _145  and  _148
REMARK   62  A    between atoms: _148  and  _149
REMARK   63  A    between atoms: _152  and  _154
REMARK   64  A    between atoms: _154  and  _155
REMARK   65  A    between atoms: _154  and  _157
REMARK   66  A    between atoms: _159  and  _161
REMARK   67  A    between atoms: _161  and  _162
REMARK   68  A    between atoms: _161  and  _164
REMARK   69  A    between atoms: _164  and  _165
REMARK   70  A    between atoms: _165  and  _166
REMARK   71  A    between atoms: _166  and  _167
REMARK   72  A    between atoms: _176  and  _178
REMARK   73  A    between atoms: _178  and  _179
REMARK   74  A    between atoms: _178  and  _181
REMARK   75  A    between atoms: _181  and  _182
REMARK   76  A    between atoms: _185  and  _187
REMARK   77  A    between atoms: _187  and  _188
REMARK   78  A    between atoms: _187  and  _190
REMARK   79  A    between atoms: _190  and  _191
REMARK   80  A    between atoms: _194  and  _196
REMARK   81  A    between atoms: _196  and  _197
REMARK   82  A    between atoms: _196  and  _199
REMARK   83  A    between atoms: _202  and  _204
REMARK   84  A    between atoms: _204  and  _205
REMARK   85  A    between atoms: _204  and  _207
REMARK   86  A    between atoms: _207  and  _208
REMARK   87  A    between atoms: _213  and  _215
REMARK   88  A    between atoms: _215  and  _216
REMARK   89  A    between atoms: _215  and  _218
REMARK   90  A    between atoms: _218  and  _219
REMARK   91  A    between atoms: _219  and  _220
REMARK   92  A    between atoms: _220  and  _221
REMARK   93  A    between atoms: _230  and  _232
REMARK   94  A    between atoms: _232  and  _233
REMARK   95  A    between atoms: _232  and  _235
REMARK   96  A    between atoms: _235  and  _236
REMARK   97  A    between atoms: _239  and  _241
REMARK   98  A    between atoms: _241  and  _242
REMARK   99  A    between atoms: _244  and  _246
REMARK  100  A    between atoms: _246  and  _247
REMARK  101  A    between atoms: _246  and  _249
REMARK  102  A    between atoms: _249  and  _250
REMARK  103  A    between atoms: _253  and  _255
REMARK  104  A    between atoms: _255  and  _256
REMARK  105  A    between atoms: _255  and  _258
REMARK  106  A    between atoms: _258  and  _259
REMARK  107  A    between atoms: _259  and  _260
REMARK  108  A    between atoms: _260  and  _261
REMARK                            x       y       z     vdW  Elec       q    Type
REMARK                         _______ _______ _______ _____ _____    ______ ____
ROOT
ATOM      1  CA  ASN A   3       9.386   0.235  -0.720  0.00  0.00    +0.158 C 
ENDROOT
BRANCH   1   2
ATOM      2  C   ASN A   3       7.974  -0.257  -0.971  0.00  0.00    +0.241 C 
ATOM      3  O   ASN A   3       7.220  -0.435  -0.014  0.00  0.00    -0.273 OA
ATOM      4  N   VAL A   4       7.615  -0.454  -2.226  0.00  0.00    -0.297 N 
ATOM      5  H   VAL A   4       8.313  -0.332  -2.987  0.00  0.00    +0.150 HD
BRANCH   4   6
ATOM      6  CA  VAL A   4       6.236  -0.845  -2.558  0.00  0.00    +0.149 C 
BRANCH   6   7
ATOM      7  C   VAL A   4       6.161  -2.224  -3.236  0.00  0.00    +0.241 C 
ATOM      8  N   THR A   5       5.018  -2.865  -3.083  0.00  0.00    -0.295 N 
ATOM      9  H   THR A   5       4.281  -2.446  -2.480  0.00  0.00    +0.150 HD
ATOM     10  O   VAL A   4       7.098  -2.667  -3.927  0.00  0.00    -0.273 OA
BRANCH   8  11
ATOM     11  CA  THR A   5       4.756  -4.149  -3.737  0.00  0.00    +0.176 C 
BRANCH  11  12
ATOM     12  C   THR A   5       3.869  -4.008  -4.969  0.00  0.00    +0.243 C 
ATOM     13  O   THR A   5       3.319  -2.944  -5.234  0.00  0.00    -0.273 OA
ATOM     14  N   CYS A   6       3.724  -5.124  -5.678  0.00  0.00    -0.297 N 
ATOM     15  H   CYS A   6       4.426  -5.884  -5.571  0.00  0.00    +0.150 HD
BRANCH  14  16
ATOM     16  CA  CYS A   6       2.602  -5.317  -6.609  0.00  0.00    +0.149 C 
BRANCH  16  17
ATOM     17  CB  CYS A   6       2.507  -6.807  -6.966  0.00  0.00    +0.096 C 
ATOM     18  SG  CYS A   6       4.012  -7.471  -7.769  0.00  0.00    -0.080 S 
ENDBRANCH  16  17
BRANCH  16  19
ATOM     19  C   CYS A   6       1.289  -4.966  -5.943  0.00  0.00    +0.228 C 
ATOM     20  O   CYS A   6       1.135  -5.130  -4.723  0.00  0.00    -0.286 OA
ENDBRANCH  16  19
ENDBRANCH  14  16
ENDBRANCH  11  12
BRANCH  11  21
ATOM     21  CB  THR A   5       4.066  -5.176  -2.785  0.00  0.00    +0.137 C 
ATOM     22  CG2 THR A   5       4.854  -5.357  -1.504  0.00  0.00    +0.034 C 
BRANCH  21  23
ATOM     23  OG1 THR A   5       2.738  -4.743  -2.457  0.00  0.00    -0.382 OA
ATOM     24  HG1 THR A   5       2.204  -4.663  -3.287  0.00  0.00    +0.210 HD
ENDBRANCH  21  23
ENDBRANCH  11  21
ENDBRANCH   8  11
ENDBRANCH   6   7
BRANCH   6  25
ATOM     25  CB  VAL A   4       5.547   0.206  -3.431  0.00  0.00    +0.027 C 
ATOM     26  CG2 VAL A   4       5.507   1.551  -2.699  0.00  0.00    +0.002 C 
ATOM     27  CG1 VAL A   4       6.262   0.360  -4.788  0.00  0.00    +0.002 C 
ENDBRANCH   6  25
ENDBRANCH   4   6
ENDBRANCH   1   2
BRANCH   1  29
ATOM     28  C   LEU A   2       9.196   2.670  -0.549  0.00  0.00    +0.241 C 
ATOM     29  N   ASN A   3       9.326   1.480   0.040  0.00  0.00    -0.297 N 
ATOM     30  H   ASN A   3       9.387   1.438   1.077  0.00  0.00    +0.150 HD
ATOM     31  O   LEU A   2       9.103   2.818  -1.782  0.00  0.00    -0.273 OA
BRANCH  28  32
ATOM     32  CA  LEU A   2       9.138   3.888   0.384  0.00  0.00    +0.149 C 
BRANCH  32  35
ATOM     33  C   ASP A   1      11.275   4.756   1.255  0.00  0.00    +0.239 C 
ATOM     34  O   ASP A   1      11.005   4.463   2.418  0.00  0.00    -0.274 OA
ATOM     35  N   LEU A   2      10.425   4.596   0.242  0.00  0.00    -0.297 N 
ATOM     36  H   LEU A   2      10.679   4.986  -0.688  0.00  0.00    +0.150 HD
BRANCH  33  37
ATOM     37  CA  ASP A   1      12.652   5.333   0.911  0.00  0.00    +0.156 C 
BRANCH  37  38
ATOM     38  N   ASP A   1      12.973   6.392   1.887  0.00  0.00    -0.238 NA
ATOM     39  H   ASP A   1      13.453   6.133   2.772  0.00  0.00    +0.142 HD
ENDBRANCH  37  38
BRANCH  37  40
ATOM     40  CB  ASP A   1      13.637   4.144   0.982  0.00  0.00    +0.140 C 
BRANCH  40  41
ATOM     41  CG  ASP A   1      15.002   4.408   0.290  0.00  0.00    +0.367 C 
ATOM     42  OD2 ASP A   1      15.931   3.600   0.528  0.00  0.00    -0.246 OA
ATOM     43  OD1 ASP A   1      15.182   5.357  -0.471  0.00  0.00    -0.246 OA
ENDBRANCH  40  41
ENDBRANCH  37  40
ENDBRANCH  33  37
ENDBRANCH  32  35
BRANCH  32  44
ATOM     44  CB  LEU A   2       7.945   4.792  -0.004  0.00  0.00    +0.029 C 
BRANCH  44  45
ATOM     45  CG  LEU A   2       7.824   6.063   0.846  0.00  0.00    +0.002 C 
ATOM     46  CD2 LEU A   2       7.487   5.702   2.317  0.00  0.00    +0.000 C 
ATOM     47  CD1 LEU A   2       6.770   6.984   0.276  0.00  0.00    +0.000 C 
ENDBRANCH  44  45
ENDBRANCH  32  44
ENDBRANCH  28  32
ENDBRANCH   1  29
BRANCH   1  48
ATOM     48  CB  ASN A   3      10.183  -0.856   0.021  0.00  0.00    +0.114 C 
BRANCH  48  49
ATOM     49  CG  ASN A   3      11.601  -0.436   0.366  0.00  0.00    +0.222 C 
ATOM     50  ND2 ASN A   3      12.137  -1.004   1.455  0.00  0.00    -0.329 N 
ATOM     51 HD21 ASN A   3      11.605  -1.728   1.979  0.00  0.00    +0.145 HD
ATOM     52 HD22 ASN A   3      13.085  -0.721   1.776  0.00  0.00    +0.145 HD
ATOM     53  OD1 ASN A   3      12.192   0.429  -0.291  0.00  0.00    -0.275 OA
ENDBRANCH  48  49
ENDBRANCH   1  48
TORSDOF 22
REMARK  Name = ../refined-set-2016/4np3/4np3_pocket.pdb
REMARK  108 active torsions:
REMARK  status: ('A' for Active; 'I' for Inactive)
REMARK    1  A    between atoms: _1  and  _3
REMARK    2  A    between atoms: _3  and  _4
REMARK    3  A    between atoms: _3  and  _6
REMARK    4  A    between atoms: _6  and  _7
REMARK    5  A    between atoms: _10  and  _12
REMARK    6  A    between atoms: _12  and  _13
REMARK    7  A    between atoms: _12  and  _15
REMARK    8  A    between atoms: _15  and  _16
REMARK    9  A    between atoms: _19  and  _21
REMARK   10  A    between atoms: _21  and  _22
REMARK   11  A    between atoms: _21  and  _24
REMARK   12  A    between atoms: _24  and  _25
REMARK   13  A    between atoms: _30  and  _32
REMARK   14  A    between atoms: _32  and  _33
REMARK   15  A    between atoms: _32  and  _35
REMARK   16  A    between atoms: _38  and  _40
REMARK   17  A    between atoms: _40  and  _41
REMARK   18  A    between atoms: _40  and  _43
REMARK   19  A    between atoms: _43  and  _44
REMARK   20  A    between atoms: _47  and  _49
REMARK   21  A    between atoms: _49  and  _50
REMARK   22  A    between atoms: _49  and  _52
REMARK   23  A    between atoms: _54  and  _56
REMARK   24  A    between atoms: _56  and  _57
REMARK   25  A    between atoms: _56  and  _59
REMARK   26  A    between atoms: _59  and  _60
REMARK   27  A    between atoms: _65  and  _67
REMARK   28  A    between atoms: _67  and  _68
REMARK   29  A    between atoms: _67  and  _70
REMARK   30  A    between atoms: _73  and  _75
REMARK   31  A    between atoms: _75  and  _76
REMARK   32  A    between atoms: _75  and  _78
REMARK   33  A    between atoms: _78  and  _79
REMARK   34  A    between atoms: _79  and  _80
REMARK   35  A    between atoms: _83  and  _85
REMARK   36  A    between atoms: _85  and  _86
REMARK   37  A    between atoms: _85  and  _88
REMARK   38  A    between atoms: _88  and  _89
REMARK   39  A    between atoms: _89  and  _90
REMARK   40  A    between atoms: _90  and  _91
REMARK   41  A    between atoms: _91  and  _92
REMARK   42  A    between atoms: _96  and  _98
REMARK   43  A    between atoms: _98  and  _99
REMARK   44  A    between atoms: _98  and  _101
REMARK   45  A    between atoms: _101  and  _102
REMARK   46  A    between atoms: _107  and  _109
REMARK   47  A    between atoms: _109  and  _110
REMARK   48  A    between atoms: _112  and  _114
REMARK   49  A    between atoms: _114  and  _115
REMARK   50  A    between atoms: _114  and  _117
REMARK   51  A    between atoms: _117  and  _118
REMARK   52  A    between atoms: _118  and  _119
REMARK   53  A    between atoms: _119  and  _120
REMARK   54  A    between atoms: _129  and  _131
REMARK   55  A    between atoms: _131  and  _132
REMARK   56  A    between atoms: _131  and  _134
REMARK   57  A    between atoms: _134  and  _135
REMARK   58  A    between atoms: _140  and  _141
REMARK   59  A    between atoms: _143  and  _145
REMARK   60  A    between atoms: _145  and  _146
REMARK   61  A    between atoms: _145  and  _148
REMARK   62  A    between atoms: _148  and  _149
REMARK   63  A    between atoms: _152  and  _154
REMARK   64  A    between atoms: _154  and  _155
REMARK   65  A    between atoms: _154  and  _157
REMARK   66  A    between atoms: _159  and  _161
REMARK   67  A    between atoms: _161  and  _162
REMARK   68  A    between atoms: _161  and  _164
REMARK   69  A    between atoms: _164  and  _165
REMARK   70  A    between atoms: _165  and  _166
REMARK   71  A    between atoms: _166  and  _167
REMARK   72  A    between atoms: _176  and  _178
REMARK   73  A    between atoms: _178  and  _179
REMARK   74  A    between atoms: _178  and  _181
REMARK   75  A    between atoms: _181  and  _182
REMARK   76  A    between atoms: _185  and  _187
REMARK   77  A    between atoms: _187  and  _188
REMARK   78  A    between atoms: _187  and  _190
REMARK   79  A    between atoms: _190  and  _191
REMARK   80  A    between atoms: _194  and  _196
REMARK   81  A    between atoms: _196  and  _197
REMARK   82  A    between atoms: _196  and  _199
REMARK   83  A    between atoms: _202  and  _204
REMARK   84  A    between atoms: _204  and  _205
REMARK   85  A    between atoms: _204  and  _207
REMARK   86  A    between atoms: _207  and  _208
REMARK   87  A    between atoms: _213  and  _215
REMARK   88  A    between atoms: _215  and  _216
REMARK   89  A    between atoms: _215  and  _218
REMARK   90  A    between atoms: _218  and  _219
REMARK   91  A    between atoms: _219  and  _220
REMARK   92  A    between atoms: _220  and  _221
REMARK   93  A    between atoms: _230  and  _232
REMARK   94  A    between atoms: _232  and  _233
REMARK   95  A    between atoms: _232  and  _235
REMARK   96  A    between atoms: _235  and  _236
REMARK   97  A    between atoms: _239  and  _241
REMARK   98  A    between atoms: _241  and  _242
REMARK   99  A    between atoms: _244  and  _246
REMARK  100  A    between atoms: _246  and  _247
REMARK  101  A    between atoms: _246  and  _249
REMARK  102  A    between atoms: _249  and  _250
REMARK  103  A    between atoms: _253  and  _255
REMARK  104  A    between atoms: _255  and  _256
REMARK  105  A    between atoms: _255  and  _258
REMARK  106  A    between atoms: _258  and  _259
REMARK  107  A    between atoms: _259  and  _260
REMARK  108  A    between atoms: _260  and  _261
REMARK                            x       y       z     vdW  Elec       q    Type
REMARK                         _______ _______ _______ _____ _____    ______ ____
ROOT
ATOM      1  CA  ASN A   5      13.180   2.527   4.835  0.00  0.00    +0.158 C 
ENDROOT
BRANCH   1   2
ATOM      2  C   ASN A   5      13.430   1.049   5.146  0.00  0.00    +0.241 C 
ATOM      3  O   ASN A   5      14.447   0.712   5.765  0.00  0.00    -0.273 OA
ATOM      4  N   GLY A   6      12.520   0.185   4.679  0.00  0.00    -0.295 N 
ATOM      5  H   GLY A   6      11.677   0.568   4.205  0.00  0.00    +0.150 HD
BRANCH   4   6
ATOM      6  CA  GLY A   6      12.643  -1.254   4.797  0.00  0.00    +0.176 C 
BRANCH   6   7
ATOM      7  C   GLY A   6      12.593  -1.835   6.208  0.00  0.00    +0.243 C 
ATOM      8  N   ARG A   7      12.061  -1.048   7.161  0.00  0.00    -0.297 N 
ATOM      9  H   ARG A   7      11.685  -0.120   6.880  0.00  0.00    +0.150 HD
ATOM     10  O   GLY A   6      13.010  -2.998   6.415  0.00  0.00    -0.273 OA
BRANCH   8  11
ATOM     11  CA  ARG A   7      11.984  -1.429   8.572  0.00  0.00    +0.149 C 
BRANCH  11  12
ATOM     12  C   ARG A   7      10.657  -0.908   9.149  0.00  0.00    +0.241 C 
ATOM     13  N   TYR A   8      10.107  -1.623  10.123  0.00  0.00    -0.298 N 
ATOM     14  H   TYR A   8      10.573  -2.490  10.458  0.00  0.00    +0.150 HD
ATOM     15  O   ARG A   7      10.137   0.146   8.718  0.00  0.00    -0.273 OA
BRANCH  13  16
ATOM     16  CA  TYR A   8       8.847  -1.192  10.725  0.00  0.00    +0.141 C 
BRANCH  16  17
ATOM     17  C   TYR A   8       9.028   0.175  11.340  0.00  0.00    +0.227 C 
ATOM     18  O   TYR A   8       9.840   0.340  12.272  0.00  0.00    -0.286 OA
ENDBRANCH  16  17
BRANCH  16  19
ATOM     19  CB  TYR A   8       8.421  -2.155  11.837  0.00  0.00    +0.054 C 
BRANCH  19  20
ATOM     20  CG  TYR A   8       7.987  -3.527  11.359  0.00  0.00    -0.020 A 
ATOM     21  CD2 TYR A   8       8.587  -4.685  11.869  0.00  0.00    -0.001 A 
ATOM     22  CE2 TYR A   8       8.151  -5.978  11.476  0.00  0.00    +0.036 A 
ATOM     23  CZ  TYR A   8       7.103  -6.072  10.536  0.00  0.00    +0.134 A 
ATOM     24  CE1 TYR A   8       6.531  -4.946  10.016  0.00  0.00    +0.036 A 
ATOM     25  CD1 TYR A   8       6.940  -3.669  10.437  0.00  0.00    -0.001 A 
BRANCH  23  26
ATOM     26  OH  TYR A   8       6.656  -7.299  10.096  0.00  0.00    -0.506 OA
ATOM     27  HH  TYR A   8       6.324  -7.824  10.867  0.00  0.00    +0.292 HD
ENDBRANCH  23  26
ENDBRANCH  19  20
ENDBRANCH  16  19
ENDBRANCH  13  16
ENDBRANCH  11  12
BRANCH  11  28
ATOM     28  CB  ARG A   7      13.188  -0.836   9.334  0.00  0.00    +0.033 C 
BRANCH  28  29
ATOM     29  CG  ARG A   7      13.243   0.692   9.377  0.00  0.00    +0.045 C 
BRANCH  29  30
ATOM     30  CD  ARG A   7      14.490   1.188  10.142  0.00  0.00    +0.174 C 
BRANCH  30  31
ATOM     31  NE  ARG A   7      14.489   2.655  10.301  0.00  0.00    -0.265 N 
ATOM     32  HE  ARG A   7      13.768   3.069  10.926  0.00  0.00    +0.259 HD
ATOM     33  CZ  ARG A   7      15.341   3.493   9.706  0.00  0.00    +0.342 C 
ATOM     34  NH2 ARG A   7      15.246   4.802   9.929  0.00  0.00    -0.292 N 
ATOM     35 HH21 ARG A   7      14.510   5.169  10.565  0.00  0.00    +0.255 HD
ATOM     36 HH22 ARG A   7      15.908   5.458   9.467  0.00  0.00    +0.255 HD
ATOM     37  NH1 ARG A   7      16.295   3.045   8.893  0.00  0.00    -0.292 N 
ATOM     38 HH11 ARG A   7      16.387   2.025   8.711  0.00  0.00    +0.255 HD
ATOM     39 HH12 ARG A   7      16.949   3.715   8.439  0.00  0.00    +0.255 HD
ENDBRANCH  30  31
ENDBRANCH  29  30
ENDBRANCH  28  29
ENDBRANCH  11  28
ENDBRANCH   8  11
ENDBRANCH   6   7
ENDBRANCH   4   6
ENDBRANCH   1   2
BRANCH   1  42
ATOM     40  C   LYS A   4      10.792   2.580   5.463  0.00  0.00    +0.241 C 
ATOM     41  O   LYS A   4      10.997   1.936   6.493  0.00  0.00    -0.273 OA
ATOM     42  N   ASN A   5      11.765   2.871   4.587  0.00  0.00    -0.297 N 
ATOM     43  H   ASN A   5      11.514   3.356   3.702  0.00  0.00    +0.150 HD
BRANCH  40  44
ATOM     44  CA  LYS A   4       9.372   3.014   5.106  0.00  0.00    +0.149 C 
BRANCH  44  46
ATOM     45  C   GLU A   3       8.246   1.150   3.998  0.00  0.00    +0.241 C 
ATOM     46  N   LYS A   4       8.485   1.838   5.108  0.00  0.00    -0.297 N 
ATOM     47  H   LYS A   4       8.036   1.540   5.998  0.00  0.00    +0.150 HD
ATOM     48  O   GLU A   3       8.750   1.421   2.904  0.00  0.00    -0.273 OA
BRANCH  45  49
ATOM     49  CA  GLU A   3       7.286  -0.009   4.110  0.00  0.00    +0.149 C 
BRANCH  49  52
ATOM     50  C   VAL A   2       5.128  -0.121   2.996  0.00  0.00    +0.241 C 
ATOM     51  O   VAL A   2       4.511  -0.151   4.073  0.00  0.00    -0.273 OA
ATOM     52  N   GLU A   3       6.465  -0.119   2.911  0.00  0.00    -0.297 N 
ATOM     53  H   GLU A   3       6.922  -0.197   1.980  0.00  0.00    +0.150 HD
BRANCH  50  54
ATOM     54  CA  VAL A   2       4.378  -0.045   1.678  0.00  0.00    +0.148 C 
BRANCH  54  56
ATOM     55  C   HIS A   1       3.171  -1.947   0.703  0.00  0.00    +0.239 C 
ATOM     56  N   VAL A   2       3.330  -1.063   1.685  0.00  0.00    -0.297 N 
ATOM     57  H   VAL A   2       2.678  -1.098   2.495  0.00  0.00    +0.150 HD
ATOM     58  O   HIS A   1       3.827  -1.907  -0.345  0.00  0.00    -0.274 OA
BRANCH  55  59
ATOM     59  CA  HIS A   1       2.108  -3.032   0.908  0.00  0.00    +0.151 C 
BRANCH  59  60
ATOM     60  N   HIS A   1       1.374  -3.221  -0.347  0.00  0.00    -0.238 NA
ATOM     61  H   HIS A   1       1.846  -3.723  -1.126  0.00  0.00    +0.142 HD
ENDBRANCH  59  60
BRANCH  59  62
ATOM     62  CB  HIS A   1       2.758  -4.372   1.292  0.00  0.00    +0.074 C 
BRANCH  62  63
ATOM     63  CG  HIS A   1       3.777  -4.286   2.385  0.00  0.00    +0.082 A 
ATOM     64  CD2 HIS A   1       3.638  -4.210   3.730  0.00  0.00    +0.115 A 
ATOM     65  NE2 HIS A   1       4.904  -4.204   4.273  0.00  0.00    -0.221 NA
ATOM     66  CE1 HIS A   1       5.792  -4.269   3.289  0.00  0.00    +0.199 A 
ATOM     67  ND1 HIS A   1       5.137  -4.320   2.138  0.00  0.00    -0.227 NA
ENDBRANCH  62  63
ENDBRANCH  59  62
ENDBRANCH  55  59
ENDBRANCH  54  56
BRANCH  54  68
ATOM     68  CB  VAL A   2       3.781   1.384   1.561  0.00  0.00    +0.027 C 
ATOM     69  CG2 VAL A   2       4.938   2.433   1.341  0.00  0.00    +0.002 C 
ATOM     70  CG1 VAL A   2       2.807   1.465   0.430  0.00  0.00    +0.002 C 
ENDBRANCH  54  68
ENDBRANCH  50  54
ENDBRANCH  49  52
BRANCH  49  71
ATOM     71  CB  GLU A   3       8.015  -1.319   4.396  0.00  0.00    +0.041 C 
BRANCH  71  72
ATOM     72  CG  GLU A   3       9.018  -1.628   3.349  0.00  0.00    +0.116 C 
BRANCH  72  73
ATOM     73  CD  GLU A   3       9.692  -2.964   3.482  0.00  0.00    +0.365 C 
ATOM     74  OE2 GLU A   3       9.260  -3.839   4.255  0.00  0.00    -0.246 OA
ATOM     75  OE1 GLU A   3      10.687  -3.127   2.747  0.00  0.00    -0.246 OA
ENDBRANCH  72  73
ENDBRANCH  71  72
ENDBRANCH  49  71
ENDBRANCH  45  49
ENDBRANCH  44  46
BRANCH  44  76
ATOM     76  CB  LYS A   4       8.841   4.091   6.083  0.00  0.00    +0.029 C 
BRANCH  76  77
ATOM     77  CG  LYS A   4       9.766   5.312   6.169  0.00  0.00    +0.000 C 
BRANCH  77  78
ATOM     78  CD  LYS A   4       9.097   6.413   6.990  0.00  0.00    -0.024 C 
BRANCH  78  79
ATOM     79  CE  LYS A   4       9.019   6.067   8.445  0.00  0.00    -0.086 C 
BRANCH  79  80
ATOM     80  NZ  LYS A   4       8.413   7.286   9.170  0.00  0.00    +0.380 N 
ATOM     81  HZ1 LYS A   4       8.343   7.083  10.188  0.00  0.00    -0.089 HD
ATOM     82  HZ2 LYS A   4       9.024   8.115   9.022  0.00  0.00    -0.089 HD
ATOM     83  HZ3 LYS A   4       7.465   7.480   8.788  0.00  0.00    -0.089 HD
ENDBRANCH  79  80
ENDBRANCH  78  79
ENDBRANCH  77  78
ENDBRANCH  76  77
ENDBRANCH  44  76
ENDBRANCH  40  44
ENDBRANCH   1  42
BRANCH   1  84
ATOM     84  CB  ASN A   5      13.774   3.453   5.916  0.00  0.00    +0.114 C 
BRANCH  84  85
ATOM     85  CG  ASN A   5      13.719   4.926   5.510  0.00  0.00    +0.222 C 
ATOM     86  ND2 ASN A   5      13.353   5.794   6.449  0.00  0.00    -0.329 N 
ATOM     87 HD21 ASN A   5      13.142   5.461   7.411  0.00  0.00    +0.145 HD
ATOM     88 HD22 ASN A   5      13.277   6.806   6.221  0.00  0.00    +0.145 HD
ATOM     89  OD1 ASN A   5      13.979   5.265   4.358  0.00  0.00    -0.275 OA
ENDBRANCH  84  85
ENDBRANCH   1  84
TORSDOF 36
REMARK  Name = ../refined-set-2016/4np3/4np3_pocket.pdb
REMARK  108 active torsions:
REMARK  status: ('A' for Active; 'I' for Inactive)
REMARK    1  A    between atoms: _1  and  _3
REMARK    2  A    between atoms: _3  and  _4
REMARK    3  A    between atoms: _3  and  _6
REMARK    4  A    between atoms: _6  and  _7
REMARK    5  A    between atoms: _10  and  _12
REMARK    6  A    between atoms: _12  and  _13
REMARK    7  A    between atoms: _12  and  _15
REMARK    8  A    between atoms: _15  and  _16
REMARK    9  A    between atoms: _19  and  _21
REMARK   10  A    between atoms: _21  and  _22
REMARK   11  A    between atoms: _21  and  _24
REMARK   12  A    between atoms: _24  and  _25
REMARK   13  A    between atoms: _30  and  _32
REMARK   14  A    between atoms: _32  and  _33
REMARK   15  A    between atoms: _32  and  _35
REMARK   16  A    between atoms: _38  and  _40
REMARK   17  A    between atoms: _40  and  _41
REMARK   18  A    between atoms: _40  and  _43
REMARK   19  A    between atoms: _43  and  _44
REMARK   20  A    between atoms: _47  and  _49
REMARK   21  A    between atoms: _49  and  _50
REMARK   22  A    between atoms: _49  and  _52
REMARK   23  A    between atoms: _54  and  _56
REMARK   24  A    between atoms: _56  and  _57
REMARK   25  A    between atoms: _56  and  _59
REMARK   26  A    between atoms: _59  and  _60
REMARK   27  A    between atoms: _65  and  _67
REMARK   28  A    between atoms: _67  and  _68
REMARK   29  A    between atoms: _67  and  _70
REMARK   30  A    between atoms: _73  and  _75
REMARK   31  A    between atoms: _75  and  _76
REMARK   32  A    between atoms: _75  and  _78
REMARK   33  A    between atoms: _78  and  _79
REMARK   34  A    between atoms: _79  and  _80
REMARK   35  A    between atoms: _83  and  _85
REMARK   36  A    between atoms: _85  and  _86
REMARK   37  A    between atoms: _85  and  _88
REMARK   38  A    between atoms: _88  and  _89
REMARK   39  A    between atoms: _89  and  _90
REMARK   40  A    between atoms: _90  and  _91
REMARK   41  A    between atoms: _91  and  _92
REMARK   42  A    between atoms: _96  and  _98
REMARK   43  A    between atoms: _98  and  _99
REMARK   44  A    between atoms: _98  and  _101
REMARK   45  A    between atoms: _101  and  _102
REMARK   46  A    between atoms: _107  and  _109
REMARK   47  A    between atoms: _109  and  _110
REMARK   48  A    between atoms: _112  and  _114
REMARK   49  A    between atoms: _114  and  _115
REMARK   50  A    between atoms: _114  and  _117
REMARK   51  A    between atoms: _117  and  _118
REMARK   52  A    between atoms: _118  and  _119
REMARK   53  A    between atoms: _119  and  _120
REMARK   54  A    between atoms: _129  and  _131
REMARK   55  A    between atoms: _131  and  _132
REMARK   56  A    between atoms: _131  and  _134
REMARK   57  A    between atoms: _134  and  _135
REMARK   58  A    between atoms: _140  and  _141
REMARK   59  A    between atoms: _143  and  _145
REMARK   60  A    between atoms: _145  and  _146
REMARK   61  A    between atoms: _145  and  _148
REMARK   62  A    between atoms: _148  and  _149
REMARK   63  A    between atoms: _152  and  _154
REMARK   64  A    between atoms: _154  and  _155
REMARK   65  A    between atoms: _154  and  _157
REMARK   66  A    between atoms: _159  and  _161
REMARK   67  A    between atoms: _161  and  _162
REMARK   68  A    between atoms: _161  and  _164
REMARK   69  A    between atoms: _164  and  _165
REMARK   70  A    between atoms: _165  and  _166
REMARK   71  A    between atoms: _166  and  _167
REMARK   72  A    between atoms: _176  and  _178
REMARK   73  A    between atoms: _178  and  _179
REMARK   74  A    between atoms: _178  and  _181
REMARK   75  A    between atoms: _181  and  _182
REMARK   76  A    between atoms: _185  and  _187
REMARK   77  A    between atoms: _187  and  _188
REMARK   78  A    between atoms: _187  and  _190
REMARK   79  A    between atoms: _190  and  _191
REMARK   80  A    between atoms: _194  and  _196
REMARK   81  A    between atoms: _196  and  _197
REMARK   82  A    between atoms: _196  and  _199
REMARK   83  A    between atoms: _202  and  _204
REMARK   84  A    between atoms: _204  and  _205
REMARK   85  A    between atoms: _204  and  _207
REMARK   86  A    between atoms: _207  and  _208
REMARK   87  A    between atoms: _213  and  _215
REMARK   88  A    between atoms: _215  and  _216
REMARK   89  A    between atoms: _215  and  _218
REMARK   90  A    between atoms: _218  and  _219
REMARK   91  A    between atoms: _219  and  _220
REMARK   92  A    between atoms: _220  and  _221
REMARK   93  A    between atoms: _230  and  _232
REMARK   94  A    between atoms: _232  and  _233
REMARK   95  A    between atoms: _232  and  _235
REMARK   96  A    between atoms: _235  and  _236
REMARK   97  A    between atoms: _239  and  _241
REMARK   98  A    between atoms: _241  and  _242
REMARK   99  A    between atoms: _244  and  _246
REMARK  100  A    between atoms: _246  and  _247
REMARK  101  A    between atoms: _246  and  _249
REMARK  102  A    between atoms: _249  and  _250
REMARK  103  A    between atoms: _253  and  _255
REMARK  104  A    between atoms: _255  and  _256
REMARK  105  A    between atoms: _255  and  _258
REMARK  106  A    between atoms: _258  and  _259
REMARK  107  A    between atoms: _259  and  _260
REMARK  108  A    between atoms: _260  and  _261
REMARK                            x       y       z     vdW  Elec       q    Type
REMARK                         _______ _______ _______ _____ _____    ______ ____
ROOT
ATOM      1  C   CYS A   2       5.864 -10.374   6.468  0.00  0.00    +0.242 C 
ATOM      2  O   CYS A   2       6.786 -10.394   7.309  0.00  0.00    -0.273 OA
ATOM      3  N   ARG A   3       5.009  -9.356   6.335  0.00  0.00    -0.298 N 
ATOM      4  H   ARG A   3       4.226  -9.441   5.656  0.00  0.00    +0.150 HD
ENDROOT
BRANCH   1   5
ATOM      5  CA  CYS A   2       5.664 -11.541   5.515  0.00  0.00    +0.160 C 
BRANCH   5   8
ATOM      6  C   THR A   1       4.031 -11.409   3.718  0.00  0.00    +0.241 C 
ATOM      7  O   THR A   1       3.294 -12.287   4.228  0.00  0.00    -0.274 OA
ATOM      8  N   CYS A   2       5.213 -11.050   4.228  0.00  0.00    -0.296 N 
ATOM      9  H   CYS A   2       5.823 -10.403   3.689  0.00  0.00    +0.150 HD
BRANCH   6  10
ATOM     10  CA  THR A   1       3.624 -10.653   2.468  0.00  0.00    +0.172 C 
BRANCH  10  11
ATOM     11  N   THR A   1       2.341 -11.252   2.011  0.00  0.00    -0.236 NA
ATOM     12  H   THR A   1       1.605 -11.466   2.714  0.00  0.00    +0.142 HD
ENDBRANCH  10  11
BRANCH  10  13
ATOM     13  CB  THR A   1       3.499  -9.167   2.867  0.00  0.00    +0.135 C 
ATOM     14  CG2 THR A   1       2.764  -8.321   1.796  0.00  0.00    +0.034 C 
BRANCH  13  15
ATOM     15  OG1 THR A   1       2.824  -9.071   4.125  0.00  0.00    -0.383 OA
ATOM     16  HG1 THR A   1       2.743  -8.119   4.383  0.00  0.00    +0.210 HD
ENDBRANCH  13  15
ENDBRANCH  10  13
ENDBRANCH   6  10
ENDBRANCH   5   8
BRANCH   5  17
ATOM     17  CB  CYS A   2       6.959 -12.323   5.342  0.00  0.00    +0.098 C 
ATOM     18  SG  CYS A   2       7.411 -13.281   6.838  0.00  0.00    -0.080 S 
ENDBRANCH   5  17
ENDBRANCH   1   5
BRANCH   3  19
ATOM     19  CA  ARG A   3       5.142  -8.110   7.124  0.00  0.00    +0.137 C 
BRANCH  19  20
ATOM     20  C   ARG A   3       3.817  -7.652   7.737  0.00  0.00    +0.227 C 
ATOM     21  O   ARG A   3       2.786  -7.608   7.038  0.00  0.00    -0.286 OA
ENDBRANCH  19  20
BRANCH  19  22
ATOM     22  CB  ARG A   3       5.679  -6.965   6.228  0.00  0.00    +0.031 C 
BRANCH  22  23
ATOM     23  CG  ARG A   3       7.053  -7.271   5.585  0.00  0.00    +0.045 C 
BRANCH  23  24
ATOM     24  CD  ARG A   3       8.225  -7.180   6.590  0.00  0.00    +0.174 C 
BRANCH  24  25
ATOM     25  NE  ARG A   3       8.421  -5.785   7.008  0.00  0.00    -0.265 N 
ATOM     26  CZ  ARG A   3       9.311  -5.370   7.905  0.00  0.00    +0.342 C 
ATOM     27  NH2 ARG A   3      10.102  -6.243   8.482  0.00  0.00    -0.292 N 
ATOM     28 HH21 ARG A   3      10.801  -5.927   9.184  0.00  0.00    +0.255 HD
ATOM     29 HH22 ARG A   3      10.030  -7.251   8.237  0.00  0.00    +0.255 HD
ATOM     30  NH1 ARG A   3       9.414  -4.069   8.180  0.00  0.00    -0.292 N 
ATOM     31 HH11 ARG A   3      10.108  -3.739   8.881  0.00  0.00    +0.255 HD
ATOM     32 HH12 ARG A   3       8.800  -3.385   7.694  0.00  0.00    +0.255 HD
ATOM     33  HE  ARG A   3       7.815  -5.064   6.567  0.00  0.00    +0.259 HD
ENDBRANCH  24  25
ENDBRANCH  23  24
ENDBRANCH  22  23
ENDBRANCH  19  22
ENDBRANCH   3  19
TORSDOF 13
REMARK  Name = ../refined-set-2016/4np3/4np3_pocket.pdb
REMARK  108 active torsions:
REMARK  status: ('A' for Active; 'I' for Inactive)
REMARK    1  A    between atoms: _1  and  _3
REMARK    2  A    between atoms: _3  and  _4
REMARK    3  A    between atoms: _3  and  _6
REMARK    4  A    between atoms: _6  and  _7
REMARK    5  A    between atoms: _10  and  _12
REMARK    6  A    between atoms: _12  and  _13
REMARK    7  A    between atoms: _12  and  _15
REMARK    8  A    between atoms: _15  and  _16
REMARK    9  A    between atoms: _19  and  _21
REMARK   10  A    between atoms: _21  and  _22
REMARK   11  A    between atoms: _21  and  _24
REMARK   12  A    between atoms: _24  and  _25
REMARK   13  A    between atoms: _30  and  _32
REMARK   14  A    between atoms: _32  and  _33
REMARK   15  A    between atoms: _32  and  _35
REMARK   16  A    between atoms: _38  and  _40
REMARK   17  A    between atoms: _40  and  _41
REMARK   18  A    between atoms: _40  and  _43
REMARK   19  A    between atoms: _43  and  _44
REMARK   20  A    between atoms: _47  and  _49
REMARK   21  A    between atoms: _49  and  _50
REMARK   22  A    between atoms: _49  and  _52
REMARK   23  A    between atoms: _54  and  _56
REMARK   24  A    between atoms: _56  and  _57
REMARK   25  A    between atoms: _56  and  _59
REMARK   26  A    between atoms: _59  and  _60
REMARK   27  A    between atoms: _65  and  _67
REMARK   28  A    between atoms: _67  and  _68
REMARK   29  A    between atoms: _67  and  _70
REMARK   30  A    between atoms: _73  and  _75
REMARK   31  A    between atoms: _75  and  _76
REMARK   32  A    between atoms: _75  and  _78
REMARK   33  A    between atoms: _78  and  _79
REMARK   34  A    between atoms: _79  and  _80
REMARK   35  A    between atoms: _83  and  _85
REMARK   36  A    between atoms: _85  and  _86
REMARK   37  A    between atoms: _85  and  _88
REMARK   38  A    between atoms: _88  and  _89
REMARK   39  A    between atoms: _89  and  _90
REMARK   40  A    between atoms: _90  and  _91
REMARK   41  A    between atoms: _91  and  _92
REMARK   42  A    between atoms: _96  and  _98
REMARK   43  A    between atoms: _98  and  _99
REMARK   44  A    between atoms: _98  and  _101
REMARK   45  A    between atoms: _101  and  _102
REMARK   46  A    between atoms: _107  and  _109
REMARK   47  A    between atoms: _109  and  _110
REMARK   48  A    between atoms: _112  and  _114
REMARK   49  A    between atoms: _114  and  _115
REMARK   50  A    between atoms: _114  and  _117
REMARK   51  A    between atoms: _117  and  _118
REMARK   52  A    between atoms: _118  and  _119
REMARK   53  A    between atoms: _119  and  _120
REMARK   54  A    between atoms: _129  and  _131
REMARK   55  A    between atoms: _131  and  _132
REMARK   56  A    between atoms: _131  and  _134
REMARK   57  A    between atoms: _134  and  _135
REMARK   58  A    between atoms: _140  and  _141
REMARK   59  A    between atoms: _143  and  _145
REMARK   60  A    between atoms: _145  and  _146
REMARK   61  A    between atoms: _145  and  _148
REMARK   62  A    between atoms: _148  and  _149
REMARK   63  A    between atoms: _152  and  _154
REMARK   64  A    between atoms: _154  and  _155
REMARK   65  A    between atoms: _154  and  _157
REMARK   66  A    between atoms: _159  and  _161
REMARK   67  A    between atoms: _161  and  _162
REMARK   68  A    between atoms: _161  and  _164
REMARK   69  A    between atoms: _164  and  _165
REMARK   70  A    between atoms: _165  and  _166
REMARK   71  A    between atoms: _166  and  _167
REMARK   72  A    between atoms: _176  and  _178
REMARK   73  A    between atoms: _178  and  _179
REMARK   74  A    between atoms: _178  and  _181
REMARK   75  A    between atoms: _181  and  _182
REMARK   76  A    between atoms: _185  and  _187
REMARK   77  A    between atoms: _187  and  _188
REMARK   78  A    between atoms: _187  and  _190
REMARK   79  A    between atoms: _190  and  _191
REMARK   80  A    between atoms: _194  and  _196
REMARK   81  A    between atoms: _196  and  _197
REMARK   82  A    between atoms: _196  and  _199
REMARK   83  A    between atoms: _202  and  _204
REMARK   84  A    between atoms: _204  and  _205
REMARK   85  A    between atoms: _204  and  _207
REMARK   86  A    between atoms: _207  and  _208
REMARK   87  A    between atoms: _213  and  _215
REMARK   88  A    between atoms: _215  and  _216
REMARK   89  A    between atoms: _215  and  _218
REMARK   90  A    between atoms: _218  and  _219
REMARK   91  A    between atoms: _219  and  _220
REMARK   92  A    between atoms: _220  and  _221
REMARK   93  A    between atoms: _230  and  _232
REMARK   94  A    between atoms: _232  and  _233
REMARK   95  A    between atoms: _232  and  _235
REMARK   96  A    between atoms: _235  and  _236
REMARK   97  A    between atoms: _239  and  _241
REMARK   98  A    between atoms: _241  and  _242
REMARK   99  A    between atoms: _244  and  _246
REMARK  100  A    between atoms: _246  and  _247
REMARK  101  A    between atoms: _246  and  _249
REMARK  102  A    between atoms: _249  and  _250
REMARK  103  A    between atoms: _253  and  _255
REMARK  104  A    between atoms: _255  and  _256
REMARK  105  A    between atoms: _255  and  _258
REMARK  106  A    between atoms: _258  and  _259
REMARK  107  A    between atoms: _259  and  _260
REMARK  108  A    between atoms: _260  and  _261
REMARK                            x       y       z     vdW  Elec       q    Type
REMARK                         _______ _______ _______ _____ _____    ______ ____
ROOT
ATOM      1  CA  ASP A   1       4.271  -1.086   7.740  0.00  0.00    +0.144 C 
ENDROOT
BRANCH   1   2
ATOM      2  N   ASP A   1       4.387  -1.573   9.112  0.00  0.00    -0.239 NA
ATOM      3  H   ASP A   1       4.190  -2.572   9.321  0.00  0.00    +0.142 HD
ENDBRANCH   1   2
BRANCH   1   4
ATOM      4  C   ASP A   1       2.811  -0.678   7.519  0.00  0.00    +0.225 C 
ATOM      5  O   ASP A   1       2.014  -0.636   8.484  0.00  0.00    -0.287 OA
ENDBRANCH   1   4
BRANCH   1   6
ATOM      6  CB  ASP A   1       4.666  -2.183   6.729  0.00  0.00    +0.139 C 
BRANCH   6   7
ATOM      7  CG  ASP A   1       6.108  -2.676   6.925  0.00  0.00    +0.367 C 
ATOM      8  OD2 ASP A   1       6.956  -1.947   7.528  0.00  0.00    -0.246 OA
ATOM      9  OD1 ASP A   1       6.385  -3.807   6.458  0.00  0.00    -0.246 OA
ENDBRANCH   6   7
ENDBRANCH   1   6
TORSDOF 4
REMARK  Name = ../refined-set-2016/4np3/4np3_pocket.pdb
REMARK  108 active torsions:
REMARK  status: ('A' for Active; 'I' for Inactive)
REMARK    1  A    between atoms: _1  and  _3
REMARK    2  A    between atoms: _3  and  _4
REMARK    3  A    between atoms: _3  and  _6
REMARK    4  A    between atoms: _6  and  _7
REMARK    5  A    between atoms: _10  and  _12
REMARK    6  A    between atoms: _12  and  _13
REMARK    7  A    between atoms: _12  and  _15
REMARK    8  A    between atoms: _15  and  _16
REMARK    9  A    between atoms: _19  and  _21
REMARK   10  A    between atoms: _21  and  _22
REMARK   11  A    between atoms: _21  and  _24
REMARK   12  A    between atoms: _24  and  _25
REMARK   13  A    between atoms: _30  and  _32
REMARK   14  A    between atoms: _32  and  _33
REMARK   15  A    between atoms: _32  and  _35
REMARK   16  A    between atoms: _38  and  _40
REMARK   17  A    between atoms: _40  and  _41
REMARK   18  A    between atoms: _40  and  _43
REMARK   19  A    between atoms: _43  and  _44
REMARK   20  A    between atoms: _47  and  _49
REMARK   21  A    between atoms: _49  and  _50
REMARK   22  A    between atoms: _49  and  _52
REMARK   23  A    between atoms: _54  and  _56
REMARK   24  A    between atoms: _56  and  _57
REMARK   25  A    between atoms: _56  and  _59
REMARK   26  A    between atoms: _59  and  _60
REMARK   27  A    between atoms: _65  and  _67
REMARK   28  A    between atoms: _67  and  _68
REMARK   29  A    between atoms: _67  and  _70
REMARK   30  A    between atoms: _73  and  _75
REMARK   31  A    between atoms: _75  and  _76
REMARK   32  A    between atoms: _75  and  _78
REMARK   33  A    between atoms: _78  and  _79
REMARK   34  A    between atoms: _79  and  _80
REMARK   35  A    between atoms: _83  and  _85
REMARK   36  A    between atoms: _85  and  _86
REMARK   37  A    between atoms: _85  and  _88
REMARK   38  A    between atoms: _88  and  _89
REMARK   39  A    between atoms: _89  and  _90
REMARK   40  A    between atoms: _90  and  _91
REMARK   41  A    between atoms: _91  and  _92
REMARK   42  A    between atoms: _96  and  _98
REMARK   43  A    between atoms: _98  and  _99
REMARK   44  A    between atoms: _98  and  _101
REMARK   45  A    between atoms: _101  and  _102
REMARK   46  A    between atoms: _107  and  _109
REMARK   47  A    between atoms: _109  and  _110
REMARK   48  A    between atoms: _112  and  _114
REMARK   49  A    between atoms: _114  and  _115
REMARK   50  A    between atoms: _114  and  _117
REMARK   51  A    between atoms: _117  and  _118
REMARK   52  A    between atoms: _118  and  _119
REMARK   53  A    between atoms: _119  and  _120
REMARK   54  A    between atoms: _129  and  _131
REMARK   55  A    between atoms: _131  and  _132
REMARK   56  A    between atoms: _131  and  _134
REMARK   57  A    between atoms: _134  and  _135
REMARK   58  A    between atoms: _140  and  _141
REMARK   59  A    between atoms: _143  and  _145
REMARK   60  A    between atoms: _145  and  _146
REMARK   61  A    between atoms: _145  and  _148
REMARK   62  A    between atoms: _148  and  _149
REMARK   63  A    between atoms: _152  and  _154
REMARK   64  A    between atoms: _154  and  _155
REMARK   65  A    between atoms: _154  and  _157
REMARK   66  A    between atoms: _159  and  _161
REMARK   67  A    between atoms: _161  and  _162
REMARK   68  A    between atoms: _161  and  _164
REMARK   69  A    between atoms: _164  and  _165
REMARK   70  A    between atoms: _165  and  _166
REMARK   71  A    between atoms: _166  and  _167
REMARK   72  A    between atoms: _176  and  _178
REMARK   73  A    between atoms: _178  and  _179
REMARK   74  A    between atoms: _178  and  _181
REMARK   75  A    between atoms: _181  and  _182
REMARK   76  A    between atoms: _185  and  _187
REMARK   77  A    between atoms: _187  and  _188
REMARK   78  A    between atoms: _187  and  _190
REMARK   79  A    between atoms: _190  and  _191
REMARK   80  A    between atoms: _194  and  _196
REMARK   81  A    between atoms: _196  and  _197
REMARK   82  A    between atoms: _196  and  _199
REMARK   83  A    between atoms: _202  and  _204
REMARK   84  A    between atoms: _204  and  _205
REMARK   85  A    between atoms: _204  and  _207
REMARK   86  A    between atoms: _207  and  _208
REMARK   87  A    between atoms: _213  and  _215
REMARK   88  A    between atoms: _215  and  _216
REMARK   89  A    between atoms: _215  and  _218
REMARK   90  A    between atoms: _218  and  _219
REMARK   91  A    between atoms: _219  and  _220
REMARK   92  A    between atoms: _220  and  _221
REMARK   93  A    between atoms: _230  and  _232
REMARK   94  A    between atoms: _232  and  _233
REMARK   95  A    between atoms: _232  and  _235
REMARK   96  A    between atoms: _235  and  _236
REMARK   97  A    between atoms: _239  and  _241
REMARK   98  A    between atoms: _241  and  _242
REMARK   99  A    between atoms: _244  and  _246
REMARK  100  A    between atoms: _246  and  _247
REMARK  101  A    between atoms: _246  and  _249
REMARK  102  A    between atoms: _249  and  _250
REMARK  103  A    between atoms: _253  and  _255
REMARK  104  A    between atoms: _255  and  _256
REMARK  105  A    between atoms: _255  and  _258
REMARK  106  A    between atoms: _258  and  _259
REMARK  107  A    between atoms: _259  and  _260
REMARK  108  A    between atoms: _260  and  _261
REMARK                            x       y       z     vdW  Elec       q    Type
REMARK                         _______ _______ _______ _____ _____    ______ ____
ROOT
ATOM      1  CA  ARG A   4      10.924  -4.693  -5.855  0.00  0.00    +0.149 C 
ENDROOT
BRANCH   1   4
ATOM      2  C   ASN A   3      10.824  -2.305  -6.252  0.00  0.00    +0.241 C 
ATOM      3  O   ASN A   3      12.064  -2.197  -6.107  0.00  0.00    -0.273 OA
ATOM      4  N   ARG A   4      10.187  -3.463  -6.161  0.00  0.00    -0.297 N 
ATOM      5  H   ARG A   4       9.158  -3.500  -6.307  0.00  0.00    +0.150 HD
BRANCH   2   6
ATOM      6  CA  ASN A   3       9.969  -1.084  -6.491  0.00  0.00    +0.158 C 
BRANCH   6   9
ATOM      7  C   VAL A   2      10.640   0.583  -4.856  0.00  0.00    +0.241 C 
ATOM      8  O   VAL A   2       9.929   0.059  -3.986  0.00  0.00    -0.273 OA
ATOM      9  N   ASN A   3      10.709   0.117  -6.101  0.00  0.00    -0.297 N 
ATOM     10  H   ASN A   3      11.295   0.611  -6.804  0.00  0.00    +0.150 HD
BRANCH   7  11
ATOM     11  CA  VAL A   2      11.494   1.822  -4.536  0.00  0.00    +0.148 C 
BRANCH  11  13
ATOM     12  C   ILE A   1      10.498   4.029  -4.870  0.00  0.00    +0.238 C 
ATOM     13  N   VAL A   2      10.640   2.925  -4.130  0.00  0.00    -0.297 N 
ATOM     14  H   VAL A   2      10.121   2.853  -3.232  0.00  0.00    +0.150 HD
ATOM     15  O   ILE A   1      11.114   4.229  -5.930  0.00  0.00    -0.274 OA
BRANCH  12  16
ATOM     16  CA  ILE A   1       9.561   5.100  -4.324  0.00  0.00    +0.145 C 
BRANCH  16  17
ATOM     17  CB  ILE A   1       8.380   5.303  -5.295  0.00  0.00    +0.025 C 
ATOM     18  CG2 ILE A   1       7.538   4.026  -5.392  0.00  0.00    +0.002 C 
BRANCH  17  19
ATOM     19  CG1 ILE A   1       7.549   6.526  -4.866  0.00  0.00    +0.002 C 
ATOM     20  CD1 ILE A   1       7.206   6.550  -3.377  0.00  0.00    +0.000 C 
ENDBRANCH  17  19
ENDBRANCH  16  17
BRANCH  16  21
ATOM     21  N   ILE A   1      10.310   6.339  -4.141  0.00  0.00    -0.238 NA
ATOM     22  H   ILE A   1      10.196   7.102  -4.838  0.00  0.00    +0.142 HD
ENDBRANCH  16  21
ENDBRANCH  12  16
ENDBRANCH  11  13
BRANCH  11  23
ATOM     23  CB  VAL A   2      12.553   1.490  -3.453  0.00  0.00    +0.027 C 
ATOM     24  CG2 VAL A   2      13.315   2.750  -3.004  0.00  0.00    +0.002 C 
ATOM     25  CG1 VAL A   2      13.544   0.441  -4.008  0.00  0.00    +0.002 C 
ENDBRANCH  11  23
ENDBRANCH   7  11
ENDBRANCH   6   9
BRANCH   6  26
ATOM     26  CB  ASN A   3       9.593  -0.961  -7.959  0.00  0.00    +0.114 C 
BRANCH  26  27
ATOM     27  CG  ASN A   3       8.550   0.121  -8.183  0.00  0.00    +0.222 C 
ATOM     28  OD1 ASN A   3       7.360  -0.112  -7.976  0.00  0.00    -0.275 OA
ATOM     29  ND2 ASN A   3       8.981   1.305  -8.597  0.00  0.00    -0.329 N 
ATOM     30 HD21 ASN A   3       8.304   2.078  -8.758  0.00  0.00    +0.145 HD
ATOM     31 HD22 ASN A   3       9.996   1.461  -8.760  0.00  0.00    +0.145 HD
ENDBRANCH  26  27
ENDBRANCH   6  26
ENDBRANCH   2   6
ENDBRANCH   1   4
BRANCH   1  32
ATOM     32  C   ARG A   4      11.947  -5.050  -6.947  0.00  0.00    +0.241 C 
ATOM     33  O   ARG A   4      13.001  -5.622  -6.648  0.00  0.00    -0.273 OA
ATOM     34  N   ASP A   5      11.679  -4.660  -8.197  0.00  0.00    -0.297 N 
ATOM     35  H   ASP A   5      10.772  -4.202  -8.418  0.00  0.00    +0.150 HD
BRANCH  34  36
ATOM     36  CA  ASP A   5      12.673  -4.881  -9.261  0.00  0.00    +0.160 C 
BRANCH  36  37
ATOM     37  C   ASP A   5      13.772  -3.819  -9.308  0.00  0.00    +0.241 C 
ATOM     38  N   GLY A   6      13.748  -2.918  -8.331  0.00  0.00    -0.295 N 
ATOM     39  H   GLY A   6      12.949  -2.921  -7.665  0.00  0.00    +0.150 HD
ATOM     40  O   ASP A   5      14.621  -3.817 -10.238  0.00  0.00    -0.273 OA
BRANCH  38  41
ATOM     41  CA  GLY A   6      14.809  -1.920  -8.159  0.00  0.00    +0.176 C 
BRANCH  41  42
ATOM     42  C   GLY A   6      14.525  -0.588  -8.845  0.00  0.00    +0.243 C 
ATOM     43  O   GLY A   6      15.244   0.392  -8.610  0.00  0.00    -0.273 OA
ATOM     44  N   THR A   7      13.474  -0.534  -9.671  0.00  0.00    -0.295 N 
ATOM     45  H   THR A   7      12.924  -1.398  -9.852  0.00  0.00    +0.150 HD
BRANCH  44  46
ATOM     46  CA  THR A   7      13.078   0.725 -10.331  0.00  0.00    +0.176 C 
BRANCH  46  47
ATOM     47  C   THR A   7      12.804   1.799  -9.280  0.00  0.00    +0.243 C 
ATOM     48  O   THR A   7      12.110   1.531  -8.300  0.00  0.00    -0.273 OA
ATOM     49  N   ARG A   8      13.344   3.003  -9.473  0.00  0.00    -0.298 N 
ATOM     50  H   ARG A   8      13.930   3.171 -10.315  0.00  0.00    +0.150 HD
BRANCH  49  51
ATOM     51  CA  ARG A   8      13.127   4.088  -8.524  0.00  0.00    +0.137 C 
BRANCH  51  52
ATOM     52  C   ARG A   8      12.537   5.312  -9.158  0.00  0.00    +0.227 C 
ATOM     53  O   ARG A   8      12.835   5.632 -10.312  0.00  0.00    -0.286 OA
ENDBRANCH  51  52
BRANCH  51  54
ATOM     54  CB  ARG A   8      14.429   4.503  -7.829  0.00  0.00    +0.031 C 
BRANCH  54  55
ATOM     55  CG  ARG A   8      14.877   3.452  -6.833  0.00  0.00    +0.045 C 
BRANCH  55  56
ATOM     56  CD  ARG A   8      16.208   3.861  -6.111  0.00  0.00    +0.174 C 
BRANCH  56  57
ATOM     57  NE  ARG A   8      16.600   2.763  -5.252  0.00  0.00    -0.265 N 
ATOM     58  CZ  ARG A   8      16.845   2.823  -3.962  0.00  0.00    +0.342 C 
ATOM     59  NH2 ARG A   8      16.779   3.995  -3.277  0.00  0.00    -0.292 N 
ATOM     60 HH21 ARG A   8      16.978   4.013  -2.256  0.00  0.00    +0.255 HD
ATOM     61 HH22 ARG A   8      16.530   4.874  -3.773  0.00  0.00    +0.255 HD
ATOM     62  NH1 ARG A   8      17.194   1.666  -3.362  0.00  0.00    -0.292 N 
ATOM     63 HH11 ARG A   8      17.400   1.650  -2.343  0.00  0.00    +0.255 HD
ATOM     64 HH12 ARG A   8      17.257   0.790  -3.919  0.00  0.00    +0.255 HD
ATOM     65  HE  ARG A   8      16.698   1.831  -5.702  0.00  0.00    +0.259 HD
ENDBRANCH  56  57
ENDBRANCH  55  56
ENDBRANCH  54  55
ENDBRANCH  51  54
ENDBRANCH  49  51
ENDBRANCH  46  47
BRANCH  46  66
ATOM     66  CB  THR A   7      11.815   0.539 -11.226  0.00  0.00    +0.137 C 
ATOM     67  CG2 THR A   7      11.510   1.841 -12.028  0.00  0.00    +0.034 C 
BRANCH  66  68
ATOM     68  OG1 THR A   7      12.010  -0.565 -12.138  0.00  0.00    -0.382 OA
ATOM     69  HG1 THR A   7      12.167  -1.395 -11.621  0.00  0.00    +0.210 HD
ENDBRANCH  66  68
ENDBRANCH  46  66
ENDBRANCH  44  46
ENDBRANCH  41  42
ENDBRANCH  38  41
ENDBRANCH  36  37
BRANCH  36  70
ATOM     70  CB  ASP A   5      11.982  -4.972 -10.631  0.00  0.00    +0.143 C 
BRANCH  70  71
ATOM     71  CG  ASP A   5      11.398  -3.644 -11.096  0.00  0.00    +0.367 C 
ATOM     72  OD2 ASP A   5      11.560  -2.640 -10.417  0.00  0.00    -0.246 OA
ATOM     73  OD1 ASP A   5      10.758  -3.646 -12.192  0.00  0.00    -0.246 OA
ENDBRANCH  70  71
ENDBRANCH  36  70
ENDBRANCH  34  36
ENDBRANCH   1  32
BRANCH   1  74
ATOM     74  CB  ARG A   4       9.943  -5.856  -5.536  0.00  0.00    +0.033 C 
BRANCH  74  75
ATOM     75  CG  ARG A   4      10.611  -7.164  -5.126  0.00  0.00    +0.045 C 
BRANCH  75  76
ATOM     76  CD  ARG A   4      11.405  -7.100  -3.822  0.00  0.00    +0.174 C 
BRANCH  76  77
ATOM     77  NE  ARG A   4      12.728  -6.491  -4.011  0.00  0.00    -0.265 N 
ATOM     78  CZ  ARG A   4      13.695  -6.537  -3.099  0.00  0.00    +0.342 C 
ATOM     79  NH2 ARG A   4      13.498  -7.207  -1.966  0.00  0.00    -0.292 N 
ATOM     80 HH21 ARG A   4      14.250  -7.247  -1.248  0.00  0.00    +0.255 HD
ATOM     81 HH22 ARG A   4      12.592  -7.690  -1.798  0.00  0.00    +0.255 HD
ATOM     82  NH1 ARG A   4      14.859  -5.940  -3.313  0.00  0.00    -0.292 N 
ATOM     83 HH11 ARG A   4      15.606  -5.984  -2.591  0.00  0.00    +0.255 HD
ATOM     84 HH12 ARG A   4      15.025  -5.428  -4.203  0.00  0.00    +0.255 HD
ATOM     85  HE  ARG A   4      12.919  -5.997  -4.906  0.00  0.00    +0.259 HD
ENDBRANCH  76  77
ENDBRANCH  75  76
ENDBRANCH  74  75
ENDBRANCH   1  74
TORSDOF 33
REMARK  Name = ../refined-set-2016/4np3/4np3_pocket.pdb
REMARK  108 active torsions:
REMARK  status: ('A' for Active; 'I' for Inactive)
REMARK    1  A    between atoms: _1  and  _3
REMARK    2  A    between atoms: _3  and  _4
REMARK    3  A    between atoms: _3  and  _6
REMARK    4  A    between atoms: _6  and  _7
REMARK    5  A    between atoms: _10  and  _12
REMARK    6  A    between atoms: _12  and  _13
REMARK    7  A    between atoms: _12  and  _15
REMARK    8  A    between atoms: _15  and  _16
REMARK    9  A    between atoms: _19  and  _21
REMARK   10  A    between atoms: _21  and  _22
REMARK   11  A    between atoms: _21  and  _24
REMARK   12  A    between atoms: _24  and  _25
REMARK   13  A    between atoms: _30  and  _32
REMARK   14  A    between atoms: _32  and  _33
REMARK   15  A    between atoms: _32  and  _35
REMARK   16  A    between atoms: _38  and  _40
REMARK   17  A    between atoms: _40  and  _41
REMARK   18  A    between atoms: _40  and  _43
REMARK   19  A    between atoms: _43  and  _44
REMARK   20  A    between atoms: _47  and  _49
REMARK   21  A    between atoms: _49  and  _50
REMARK   22  A    between atoms: _49  and  _52
REMARK   23  A    between atoms: _54  and  _56
REMARK   24  A    between atoms: _56  and  _57
REMARK   25  A    between atoms: _56  and  _59
REMARK   26  A    between atoms: _59  and  _60
REMARK   27  A    between atoms: _65  and  _67
REMARK   28  A    between atoms: _67  and  _68
REMARK   29  A    between atoms: _67  and  _70
REMARK   30  A    between atoms: _73  and  _75
REMARK   31  A    between atoms: _75  and  _76
REMARK   32  A    between atoms: _75  and  _78
REMARK   33  A    between atoms: _78  and  _79
REMARK   34  A    between atoms: _79  and  _80
REMARK   35  A    between atoms: _83  and  _85
REMARK   36  A    between atoms: _85  and  _86
REMARK   37  A    between atoms: _85  and  _88
REMARK   38  A    between atoms: _88  and  _89
REMARK   39  A    between atoms: _89  and  _90
REMARK   40  A    between atoms: _90  and  _91
REMARK   41  A    between atoms: _91  and  _92
REMARK   42  A    between atoms: _96  and  _98
REMARK   43  A    between atoms: _98  and  _99
REMARK   44  A    between atoms: _98  and  _101
REMARK   45  A    between atoms: _101  and  _102
REMARK   46  A    between atoms: _107  and  _109
REMARK   47  A    between atoms: _109  and  _110
REMARK   48  A    between atoms: _112  and  _114
REMARK   49  A    between atoms: _114  and  _115
REMARK   50  A    between atoms: _114  and  _117
REMARK   51  A    between atoms: _117  and  _118
REMARK   52  A    between atoms: _118  and  _119
REMARK   53  A    between atoms: _119  and  _120
REMARK   54  A    between atoms: _129  and  _131
REMARK   55  A    between atoms: _131  and  _132
REMARK   56  A    between atoms: _131  and  _134
REMARK   57  A    between atoms: _134  and  _135
REMARK   58  A    between atoms: _140  and  _141
REMARK   59  A    between atoms: _143  and  _145
REMARK   60  A    between atoms: _145  and  _146
REMARK   61  A    between atoms: _145  and  _148
REMARK   62  A    between atoms: _148  and  _149
REMARK   63  A    between atoms: _152  and  _154
REMARK   64  A    between atoms: _154  and  _155
REMARK   65  A    between atoms: _154  and  _157
REMARK   66  A    between atoms: _159  and  _161
REMARK   67  A    between atoms: _161  and  _162
REMARK   68  A    between atoms: _161  and  _164
REMARK   69  A    between atoms: _164  and  _165
REMARK   70  A    between atoms: _165  and  _166
REMARK   71  A    between atoms: _166  and  _167
REMARK   72  A    between atoms: _176  and  _178
REMARK   73  A    between atoms: _178  and  _179
REMARK   74  A    between atoms: _178  and  _181
REMARK   75  A    between atoms: _181  and  _182
REMARK   76  A    between atoms: _185  and  _187
REMARK   77  A    between atoms: _187  and  _188
REMARK   78  A    between atoms: _187  and  _190
REMARK   79  A    between atoms: _190  and  _191
REMARK   80  A    between atoms: _194  and  _196
REMARK   81  A    between atoms: _196  and  _197
REMARK   82  A    between atoms: _196  and  _199
REMARK   83  A    between atoms: _202  and  _204
REMARK   84  A    between atoms: _204  and  _205
REMARK   85  A    between atoms: _204  and  _207
REMARK   86  A    between atoms: _207  and  _208
REMARK   87  A    between atoms: _213  and  _215
REMARK   88  A    between atoms: _215  and  _216
REMARK   89  A    between atoms: _215  and  _218
REMARK   90  A    between atoms: _218  and  _219
REMARK   91  A    between atoms: _219  and  _220
REMARK   92  A    between atoms: _220  and  _221
REMARK   93  A    between atoms: _230  and  _232
REMARK   94  A    between atoms: _232  and  _233
REMARK   95  A    between atoms: _232  and  _235
REMARK   96  A    between atoms: _235  and  _236
REMARK   97  A    between atoms: _239  and  _241
REMARK   98  A    between atoms: _241  and  _242
REMARK   99  A    between atoms: _244  and  _246
REMARK  100  A    between atoms: _246  and  _247
REMARK  101  A    between atoms: _246  and  _249
REMARK  102  A    between atoms: _249  and  _250
REMARK  103  A    between atoms: _253  and  _255
REMARK  104  A    between atoms: _255  and  _256
REMARK  105  A    between atoms: _255  and  _258
REMARK  106  A    between atoms: _258  and  _259
REMARK  107  A    between atoms: _259  and  _260
REMARK  108  A    between atoms: _260  and  _261
REMARK                            x       y       z     vdW  Elec       q    Type
REMARK                         _______ _______ _______ _____ _____    ______ ____
ROOT
ATOM      1  O   HOH     1       7.807   0.615   7.598  0.00  0.00    +0.000 OA
ENDROOT
TORSDOF 0
REMARK  Name = ../refined-set-2016/4np3/4np3_pocket.pdb
REMARK  108 active torsions:
REMARK  status: ('A' for Active; 'I' for Inactive)
REMARK    1  A    between atoms: _1  and  _3
REMARK    2  A    between atoms: _3  and  _4
REMARK    3  A    between atoms: _3  and  _6
REMARK    4  A    between atoms: _6  and  _7
REMARK    5  A    between atoms: _10  and  _12
REMARK    6  A    between atoms: _12  and  _13
REMARK    7  A    between atoms: _12  and  _15
REMARK    8  A    between atoms: _15  and  _16
REMARK    9  A    between atoms: _19  and  _21
REMARK   10  A    between atoms: _21  and  _22
REMARK   11  A    between atoms: _21  and  _24
REMARK   12  A    between atoms: _24  and  _25
REMARK   13  A    between atoms: _30  and  _32
REMARK   14  A    between atoms: _32  and  _33
REMARK   15  A    between atoms: _32  and  _35
REMARK   16  A    between atoms: _38  and  _40
REMARK   17  A    between atoms: _40  and  _41
REMARK   18  A    between atoms: _40  and  _43
REMARK   19  A    between atoms: _43  and  _44
REMARK   20  A    between atoms: _47  and  _49
REMARK   21  A    between atoms: _49  and  _50
REMARK   22  A    between atoms: _49  and  _52
REMARK   23  A    between atoms: _54  and  _56
REMARK   24  A    between atoms: _56  and  _57
REMARK   25  A    between atoms: _56  and  _59
REMARK   26  A    between atoms: _59  and  _60
REMARK   27  A    between atoms: _65  and  _67
REMARK   28  A    between atoms: _67  and  _68
REMARK   29  A    between atoms: _67  and  _70
REMARK   30  A    between atoms: _73  and  _75
REMARK   31  A    between atoms: _75  and  _76
REMARK   32  A    between atoms: _75  and  _78
REMARK   33  A    between atoms: _78  and  _79
REMARK   34  A    between atoms: _79  and  _80
REMARK   35  A    between atoms: _83  and  _85
REMARK   36  A    between atoms: _85  and  _86
REMARK   37  A    between atoms: _85  and  _88
REMARK   38  A    between atoms: _88  and  _89
REMARK   39  A    between atoms: _89  and  _90
REMARK   40  A    between atoms: _90  and  _91
REMARK   41  A    between atoms: _91  and  _92
REMARK   42  A    between atoms: _96  and  _98
REMARK   43  A    between atoms: _98  and  _99
REMARK   44  A    between atoms: _98  and  _101
REMARK   45  A    between atoms: _101  and  _102
REMARK   46  A    between atoms: _107  and  _109
REMARK   47  A    between atoms: _109  and  _110
REMARK   48  A    between atoms: _112  and  _114
REMARK   49  A    between atoms: _114  and  _115
REMARK   50  A    between atoms: _114  and  _117
REMARK   51  A    between atoms: _117  and  _118
REMARK   52  A    between atoms: _118  and  _119
REMARK   53  A    between atoms: _119  and  _120
REMARK   54  A    between atoms: _129  and  _131
REMARK   55  A    between atoms: _131  and  _132
REMARK   56  A    between atoms: _131  and  _134
REMARK   57  A    between atoms: _134  and  _135
REMARK   58  A    between atoms: _140  and  _141
REMARK   59  A    between atoms: _143  and  _145
REMARK   60  A    between atoms: _145  and  _146
REMARK   61  A    between atoms: _145  and  _148
REMARK   62  A    between atoms: _148  and  _149
REMARK   63  A    between atoms: _152  and  _154
REMARK   64  A    between atoms: _154  and  _155
REMARK   65  A    between atoms: _154  and  _157
REMARK   66  A    between atoms: _159  and  _161
REMARK   67  A    between atoms: _161  and  _162
REMARK   68  A    between atoms: _161  and  _164
REMARK   69  A    between atoms: _164  and  _165
REMARK   70  A    between atoms: _165  and  _166
REMARK   71  A    between atoms: _166  and  _167
REMARK   72  A    between atoms: _176  and  _178
REMARK   73  A    between atoms: _178  and  _179
REMARK   74  A    between atoms: _178  and  _181
REMARK   75  A    between atoms: _181  and  _182
REMARK   76  A    between atoms: _185  and  _187
REMARK   77  A    between atoms: _187  and  _188
REMARK   78  A    between atoms: _187  and  _190
REMARK   79  A    between atoms: _190  and  _191
REMARK   80  A    between atoms: _194  and  _196
REMARK   81  A    between atoms: _196  and  _197
REMARK   82  A    between atoms: _196  and  _199
REMARK   83  A    between atoms: _202  and  _204
REMARK   84  A    between atoms: _204  and  _205
REMARK   85  A    between atoms: _204  and  _207
REMARK   86  A    between atoms: _207  and  _208
REMARK   87  A    between atoms: _213  and  _215
REMARK   88  A    between atoms: _215  and  _216
REMARK   89  A    between atoms: _215  and  _218
REMARK   90  A    between atoms: _218  and  _219
REMARK   91  A    between atoms: _219  and  _220
REMARK   92  A    between atoms: _220  and  _221
REMARK   93  A    between atoms: _230  and  _232
REMARK   94  A    between atoms: _232  and  _233
REMARK   95  A    between atoms: _232  and  _235
REMARK   96  A    between atoms: _235  and  _236
REMARK   97  A    between atoms: _239  and  _241
REMARK   98  A    between atoms: _241  and  _242
REMARK   99  A    between atoms: _244  and  _246
REMARK  100  A    between atoms: _246  and  _247
REMARK  101  A    between atoms: _246  and  _249
REMARK  102  A    between atoms: _249  and  _250
REMARK  103  A    between atoms: _253  and  _255
REMARK  104  A    between atoms: _255  and  _256
REMARK  105  A    between atoms: _255  and  _258
REMARK  106  A    between atoms: _258  and  _259
REMARK  107  A    between atoms: _259  and  _260
REMARK  108  A    between atoms: _260  and  _261
REMARK                            x       y       z     vdW  Elec       q    Type
REMARK                         _______ _______ _______ _____ _____    ______ ____
ROOT
ATOM      1  O   HOH     1      14.512  -3.009  -4.846  0.00  0.00    +0.000 OA
ENDROOT
TORSDOF 0
REMARK  Name = ../refined-set-2016/4np3/4np3_pocket.pdb
REMARK  108 active torsions:
REMARK  status: ('A' for Active; 'I' for Inactive)
REMARK    1  A    between atoms: _1  and  _3
REMARK    2  A    between atoms: _3  and  _4
REMARK    3  A    between atoms: _3  and  _6
REMARK    4  A    between atoms: _6  and  _7
REMARK    5  A    between atoms: _10  and  _12
REMARK    6  A    between atoms: _12  and  _13
REMARK    7  A    between atoms: _12  and  _15
REMARK    8  A    between atoms: _15  and  _16
REMARK    9  A    between atoms: _19  and  _21
REMARK   10  A    between atoms: _21  and  _22
REMARK   11  A    between atoms: _21  and  _24
REMARK   12  A    between atoms: _24  and  _25
REMARK   13  A    between atoms: _30  and  _32
REMARK   14  A    between atoms: _32  and  _33
REMARK   15  A    between atoms: _32  and  _35
REMARK   16  A    between atoms: _38  and  _40
REMARK   17  A    between atoms: _40  and  _41
REMARK   18  A    between atoms: _40  and  _43
REMARK   19  A    between atoms: _43  and  _44
REMARK   20  A    between atoms: _47  and  _49
REMARK   21  A    between atoms: _49  and  _50
REMARK   22  A    between atoms: _49  and  _52
REMARK   23  A    between atoms: _54  and  _56
REMARK   24  A    between atoms: _56  and  _57
REMARK   25  A    between atoms: _56  and  _59
REMARK   26  A    between atoms: _59  and  _60
REMARK   27  A    between atoms: _65  and  _67
REMARK   28  A    between atoms: _67  and  _68
REMARK   29  A    between atoms: _67  and  _70
REMARK   30  A    between atoms: _73  and  _75
REMARK   31  A    between atoms: _75  and  _76
REMARK   32  A    between atoms: _75  and  _78
REMARK   33  A    between atoms: _78  and  _79
REMARK   34  A    between atoms: _79  and  _80
REMARK   35  A    between atoms: _83  and  _85
REMARK   36  A    between atoms: _85  and  _86
REMARK   37  A    between atoms: _85  and  _88
REMARK   38  A    between atoms: _88  and  _89
REMARK   39  A    between atoms: _89  and  _90
REMARK   40  A    between atoms: _90  and  _91
REMARK   41  A    between atoms: _91  and  _92
REMARK   42  A    between atoms: _96  and  _98
REMARK   43  A    between atoms: _98  and  _99
REMARK   44  A    between atoms: _98  and  _101
REMARK   45  A    between atoms: _101  and  _102
REMARK   46  A    between atoms: _107  and  _109
REMARK   47  A    between atoms: _109  and  _110
REMARK   48  A    between atoms: _112  and  _114
REMARK   49  A    between atoms: _114  and  _115
REMARK   50  A    between atoms: _114  and  _117
REMARK   51  A    between atoms: _117  and  _118
REMARK   52  A    between atoms: _118  and  _119
REMARK   53  A    between atoms: _119  and  _120
REMARK   54  A    between atoms: _129  and  _131
REMARK   55  A    between atoms: _131  and  _132
REMARK   56  A    between atoms: _131  and  _134
REMARK   57  A    between atoms: _134  and  _135
REMARK   58  A    between atoms: _140  and  _141
REMARK   59  A    between atoms: _143  and  _145
REMARK   60  A    between atoms: _145  and  _146
REMARK   61  A    between atoms: _145  and  _148
REMARK   62  A    between atoms: _148  and  _149
REMARK   63  A    between atoms: _152  and  _154
REMARK   64  A    between atoms: _154  and  _155
REMARK   65  A    between atoms: _154  and  _157
REMARK   66  A    between atoms: _159  and  _161
REMARK   67  A    between atoms: _161  and  _162
REMARK   68  A    between atoms: _161  and  _164
REMARK   69  A    between atoms: _164  and  _165
REMARK   70  A    between atoms: _165  and  _166
REMARK   71  A    between atoms: _166  and  _167
REMARK   72  A    between atoms: _176  and  _178
REMARK   73  A    between atoms: _178  and  _179
REMARK   74  A    between atoms: _178  and  _181
REMARK   75  A    between atoms: _181  and  _182
REMARK   76  A    between atoms: _185  and  _187
REMARK   77  A    between atoms: _187  and  _188
REMARK   78  A    between atoms: _187  and  _190
REMARK   79  A    between atoms: _190  and  _191
REMARK   80  A    between atoms: _194  and  _196
REMARK   81  A    between atoms: _196  and  _197
REMARK   82  A    between atoms: _196  and  _199
REMARK   83  A    between atoms: _202  and  _204
REMARK   84  A    between atoms: _204  and  _205
REMARK   85  A    between atoms: _204  and  _207
REMARK   86  A    between atoms: _207  and  _208
REMARK   87  A    between atoms: _213  and  _215
REMARK   88  A    between atoms: _215  and  _216
REMARK   89  A    between atoms: _215  and  _218
REMARK   90  A    between atoms: _218  and  _219
REMARK   91  A    between atoms: _219  and  _220
REMARK   92  A    between atoms: _220  and  _221
REMARK   93  A    between atoms: _230  and  _232
REMARK   94  A    between atoms: _232  and  _233
REMARK   95  A    between atoms: _232  and  _235
REMARK   96  A    between atoms: _235  and  _236
REMARK   97  A    between atoms: _239  and  _241
REMARK   98  A    between atoms: _241  and  _242
REMARK   99  A    between atoms: _244  and  _246
REMARK  100  A    between atoms: _246  and  _247
REMARK  101  A    between atoms: _246  and  _249
REMARK  102  A    between atoms: _249  and  _250
REMARK  103  A    between atoms: _253  and  _255
REMARK  104  A    between atoms: _255  and  _256
REMARK  105  A    between atoms: _255  and  _258
REMARK  106  A    between atoms: _258  and  _259
REMARK  107  A    between atoms: _259  and  _260
REMARK  108  A    between atoms: _260  and  _261
REMARK                            x       y       z     vdW  Elec       q    Type
REMARK                         _______ _______ _______ _____ _____    ______ ____
ROOT
ATOM      1  O   HOH     1       7.190  -3.332   0.515  0.00  0.00    +0.000 OA
ENDROOT
TORSDOF 0
REMARK  Name = ../refined-set-2016/4np3/4np3_pocket.pdb
REMARK  108 active torsions:
REMARK  status: ('A' for Active; 'I' for Inactive)
REMARK    1  A    between atoms: _1  and  _3
REMARK    2  A    between atoms: _3  and  _4
REMARK    3  A    between atoms: _3  and  _6
REMARK    4  A    between atoms: _6  and  _7
REMARK    5  A    between atoms: _10  and  _12
REMARK    6  A    between atoms: _12  and  _13
REMARK    7  A    between atoms: _12  and  _15
REMARK    8  A    between atoms: _15  and  _16
REMARK    9  A    between atoms: _19  and  _21
REMARK   10  A    between atoms: _21  and  _22
REMARK   11  A    between atoms: _21  and  _24
REMARK   12  A    between atoms: _24  and  _25
REMARK   13  A    between atoms: _30  and  _32
REMARK   14  A    between atoms: _32  and  _33
REMARK   15  A    between atoms: _32  and  _35
REMARK   16  A    between atoms: _38  and  _40
REMARK   17  A    between atoms: _40  and  _41
REMARK   18  A    between atoms: _40  and  _43
REMARK   19  A    between atoms: _43  and  _44
REMARK   20  A    between atoms: _47  and  _49
REMARK   21  A    between atoms: _49  and  _50
REMARK   22  A    between atoms: _49  and  _52
REMARK   23  A    between atoms: _54  and  _56
REMARK   24  A    between atoms: _56  and  _57
REMARK   25  A    between atoms: _56  and  _59
REMARK   26  A    between atoms: _59  and  _60
REMARK   27  A    between atoms: _65  and  _67
REMARK   28  A    between atoms: _67  and  _68
REMARK   29  A    between atoms: _67  and  _70
REMARK   30  A    between atoms: _73  and  _75
REMARK   31  A    between atoms: _75  and  _76
REMARK   32  A    between atoms: _75  and  _78
REMARK   33  A    between atoms: _78  and  _79
REMARK   34  A    between atoms: _79  and  _80
REMARK   35  A    between atoms: _83  and  _85
REMARK   36  A    between atoms: _85  and  _86
REMARK   37  A    between atoms: _85  and  _88
REMARK   38  A    between atoms: _88  and  _89
REMARK   39  A    between atoms: _89  and  _90
REMARK   40  A    between atoms: _90  and  _91
REMARK   41  A    between atoms: _91  and  _92
REMARK   42  A    between atoms: _96  and  _98
REMARK   43  A    between atoms: _98  and  _99
REMARK   44  A    between atoms: _98  and  _101
REMARK   45  A    between atoms: _101  and  _102
REMARK   46  A    between atoms: _107  and  _109
REMARK   47  A    between atoms: _109  and  _110
REMARK   48  A    between atoms: _112  and  _114
REMARK   49  A    between atoms: _114  and  _115
REMARK   50  A    between atoms: _114  and  _117
REMARK   51  A    between atoms: _117  and  _118
REMARK   52  A    between atoms: _118  and  _119
REMARK   53  A    between atoms: _119  and  _120
REMARK   54  A    between atoms: _129  and  _131
REMARK   55  A    between atoms: _131  and  _132
REMARK   56  A    between atoms: _131  and  _134
REMARK   57  A    between atoms: _134  and  _135
REMARK   58  A    between atoms: _140  and  _141
REMARK   59  A    between atoms: _143  and  _145
REMARK   60  A    between atoms: _145  and  _146
REMARK   61  A    between atoms: _145  and  _148
REMARK   62  A    between atoms: _148  and  _149
REMARK   63  A    between atoms: _152  and  _154
REMARK   64  A    between atoms: _154  and  _155
REMARK   65  A    between atoms: _154  and  _157
REMARK   66  A    between atoms: _159  and  _161
REMARK   67  A    between atoms: _161  and  _162
REMARK   68  A    between atoms: _161  and  _164
REMARK   69  A    between atoms: _164  and  _165
REMARK   70  A    between atoms: _165  and  _166
REMARK   71  A    between atoms: _166  and  _167
REMARK   72  A    between atoms: _176  and  _178
REMARK   73  A    between atoms: _178  and  _179
REMARK   74  A    between atoms: _178  and  _181
REMARK   75  A    between atoms: _181  and  _182
REMARK   76  A    between atoms: _185  and  _187
REMARK   77  A    between atoms: _187  and  _188
REMARK   78  A    between atoms: _187  and  _190
REMARK   79  A    between atoms: _190  and  _191
REMARK   80  A    between atoms: _194  and  _196
REMARK   81  A    between atoms: _196  and  _197
REMARK   82  A    between atoms: _196  and  _199
REMARK   83  A    between atoms: _202  and  _204
REMARK   84  A    between atoms: _204  and  _205
REMARK   85  A    between atoms: _204  and  _207
REMARK   86  A    between atoms: _207  and  _208
REMARK   87  A    between atoms: _213  and  _215
REMARK   88  A    between atoms: _215  and  _216
REMARK   89  A    between atoms: _215  and  _218
REMARK   90  A    between atoms: _218  and  _219
REMARK   91  A    between atoms: _219  and  _220
REMARK   92  A    between atoms: _220  and  _221
REMARK   93  A    between atoms: _230  and  _232
REMARK   94  A    between atoms: _232  and  _233
REMARK   95  A    between atoms: _232  and  _235
REMARK   96  A    between atoms: _235  and  _236
REMARK   97  A    between atoms: _239  and  _241
REMARK   98  A    between atoms: _241  and  _242
REMARK   99  A    between atoms: _244  and  _246
REMARK  100  A    between atoms: _246  and  _247
REMARK  101  A    between atoms: _246  and  _249
REMARK  102  A    between atoms: _249  and  _250
REMARK  103  A    between atoms: _253  and  _255
REMARK  104  A    between atoms: _255  and  _256
REMARK  105  A    between atoms: _255  and  _258
REMARK  106  A    between atoms: _258  and  _259
REMARK  107  A    between atoms: _259  and  _260
REMARK  108  A    between atoms: _260  and  _261
REMARK                            x       y       z     vdW  Elec       q    Type
REMARK                         _______ _______ _______ _____ _____    ______ ____
ROOT
ATOM      1  O   HOH     1       7.412  -8.579  -6.854  0.00  0.00    +0.000 OA
ENDROOT
TORSDOF 0
REMARK  Name = ../refined-set-2016/4np3/4np3_pocket.pdb
REMARK  108 active torsions:
REMARK  status: ('A' for Active; 'I' for Inactive)
REMARK    1  A    between atoms: _1  and  _3
REMARK    2  A    between atoms: _3  and  _4
REMARK    3  A    between atoms: _3  and  _6
REMARK    4  A    between atoms: _6  and  _7
REMARK    5  A    between atoms: _10  and  _12
REMARK    6  A    between atoms: _12  and  _13
REMARK    7  A    between atoms: _12  and  _15
REMARK    8  A    between atoms: _15  and  _16
REMARK    9  A    between atoms: _19  and  _21
REMARK   10  A    between atoms: _21  and  _22
REMARK   11  A    between atoms: _21  and  _24
REMARK   12  A    between atoms: _24  and  _25
REMARK   13  A    between atoms: _30  and  _32
REMARK   14  A    between atoms: _32  and  _33
REMARK   15  A    between atoms: _32  and  _35
REMARK   16  A    between atoms: _38  and  _40
REMARK   17  A    between atoms: _40  and  _41
REMARK   18  A    between atoms: _40  and  _43
REMARK   19  A    between atoms: _43  and  _44
REMARK   20  A    between atoms: _47  and  _49
REMARK   21  A    between atoms: _49  and  _50
REMARK   22  A    between atoms: _49  and  _52
REMARK   23  A    between atoms: _54  and  _56
REMARK   24  A    between atoms: _56  and  _57
REMARK   25  A    between atoms: _56  and  _59
REMARK   26  A    between atoms: _59  and  _60
REMARK   27  A    between atoms: _65  and  _67
REMARK   28  A    between atoms: _67  and  _68
REMARK   29  A    between atoms: _67  and  _70
REMARK   30  A    between atoms: _73  and  _75
REMARK   31  A    between atoms: _75  and  _76
REMARK   32  A    between atoms: _75  and  _78
REMARK   33  A    between atoms: _78  and  _79
REMARK   34  A    between atoms: _79  and  _80
REMARK   35  A    between atoms: _83  and  _85
REMARK   36  A    between atoms: _85  and  _86
REMARK   37  A    between atoms: _85  and  _88
REMARK   38  A    between atoms: _88  and  _89
REMARK   39  A    between atoms: _89  and  _90
REMARK   40  A    between atoms: _90  and  _91
REMARK   41  A    between atoms: _91  and  _92
REMARK   42  A    between atoms: _96  and  _98
REMARK   43  A    between atoms: _98  and  _99
REMARK   44  A    between atoms: _98  and  _101
REMARK   45  A    between atoms: _101  and  _102
REMARK   46  A    between atoms: _107  and  _109
REMARK   47  A    between atoms: _109  and  _110
REMARK   48  A    between atoms: _112  and  _114
REMARK   49  A    between atoms: _114  and  _115
REMARK   50  A    between atoms: _114  and  _117
REMARK   51  A    between atoms: _117  and  _118
REMARK   52  A    between atoms: _118  and  _119
REMARK   53  A    between atoms: _119  and  _120
REMARK   54  A    between atoms: _129  and  _131
REMARK   55  A    between atoms: _131  and  _132
REMARK   56  A    between atoms: _131  and  _134
REMARK   57  A    between atoms: _134  and  _135
REMARK   58  A    between atoms: _140  and  _141
REMARK   59  A    between atoms: _143  and  _145
REMARK   60  A    between atoms: _145  and  _146
REMARK   61  A    between atoms: _145  and  _148
REMARK   62  A    between atoms: _148  and  _149
REMARK   63  A    between atoms: _152  and  _154
REMARK   64  A    between atoms: _154  and  _155
REMARK   65  A    between atoms: _154  and  _157
REMARK   66  A    between atoms: _159  and  _161
REMARK   67  A    between atoms: _161  and  _162
REMARK   68  A    between atoms: _161  and  _164
REMARK   69  A    between atoms: _164  and  _165
REMARK   70  A    between atoms: _165  and  _166
REMARK   71  A    between atoms: _166  and  _167
REMARK   72  A    between atoms: _176  and  _178
REMARK   73  A    between atoms: _178  and  _179
REMARK   74  A    between atoms: _178  and  _181
REMARK   75  A    between atoms: _181  and  _182
REMARK   76  A    between atoms: _185  and  _187
REMARK   77  A    between atoms: _187  and  _188
REMARK   78  A    between atoms: _187  and  _190
REMARK   79  A    between atoms: _190  and  _191
REMARK   80  A    between atoms: _194  and  _196
REMARK   81  A    between atoms: _196  and  _197
REMARK   82  A    between atoms: _196  and  _199
REMARK   83  A    between atoms: _202  and  _204
REMARK   84  A    between atoms: _204  and  _205
REMARK   85  A    between atoms: _204  and  _207
REMARK   86  A    between atoms: _207  and  _208
REMARK   87  A    between atoms: _213  and  _215
REMARK   88  A    between atoms: _215  and  _216
REMARK   89  A    between atoms: _215  and  _218
REMARK   90  A    between atoms: _218  and  _219
REMARK   91  A    between atoms: _219  and  _220
REMARK   92  A    between atoms: _220  and  _221
REMARK   93  A    between atoms: _230  and  _232
REMARK   94  A    between atoms: _232  and  _233
REMARK   95  A    between atoms: _232  and  _235
REMARK   96  A    between atoms: _235  and  _236
REMARK   97  A    between atoms: _239  and  _241
REMARK   98  A    between atoms: _241  and  _242
REMARK   99  A    between atoms: _244  and  _246
REMARK  100  A    between atoms: _246  and  _247
REMARK  101  A    between atoms: _246  and  _249
REMARK  102  A    between atoms: _249  and  _250
REMARK  103  A    between atoms: _253  and  _255
REMARK  104  A    between atoms: _255  and  _256
REMARK  105  A    between atoms: _255  and  _258
REMARK  106  A    between atoms: _258  and  _259
REMARK  107  A    between atoms: _259  and  _260
REMARK  108  A    between atoms: _260  and  _261
REMARK                            x       y       z     vdW  Elec       q    Type
REMARK                         _______ _______ _______ _____ _____    ______ ____
ROOT
ATOM      1  O   HOH     1      14.925  -0.375   2.081  0.00  0.00    +0.000 OA
ENDROOT
TORSDOF 0
REMARK  Name = ../refined-set-2016/4np3/4np3_pocket.pdb
REMARK  108 active torsions:
REMARK  status: ('A' for Active; 'I' for Inactive)
REMARK    1  A    between atoms: _1  and  _3
REMARK    2  A    between atoms: _3  and  _4
REMARK    3  A    between atoms: _3  and  _6
REMARK    4  A    between atoms: _6  and  _7
REMARK    5  A    between atoms: _10  and  _12
REMARK    6  A    between atoms: _12  and  _13
REMARK    7  A    between atoms: _12  and  _15
REMARK    8  A    between atoms: _15  and  _16
REMARK    9  A    between atoms: _19  and  _21
REMARK   10  A    between atoms: _21  and  _22
REMARK   11  A    between atoms: _21  and  _24
REMARK   12  A    between atoms: _24  and  _25
REMARK   13  A    between atoms: _30  and  _32
REMARK   14  A    between atoms: _32  and  _33
REMARK   15  A    between atoms: _32  and  _35
REMARK   16  A    between atoms: _38  and  _40
REMARK   17  A    between atoms: _40  and  _41
REMARK   18  A    between atoms: _40  and  _43
REMARK   19  A    between atoms: _43  and  _44
REMARK   20  A    between atoms: _47  and  _49
REMARK   21  A    between atoms: _49  and  _50
REMARK   22  A    between atoms: _49  and  _52
REMARK   23  A    between atoms: _54  and  _56
REMARK   24  A    between atoms: _56  and  _57
REMARK   25  A    between atoms: _56  and  _59
REMARK   26  A    between atoms: _59  and  _60
REMARK   27  A    between atoms: _65  and  _67
REMARK   28  A    between atoms: _67  and  _68
REMARK   29  A    between atoms: _67  and  _70
REMARK   30  A    between atoms: _73  and  _75
REMARK   31  A    between atoms: _75  and  _76
REMARK   32  A    between atoms: _75  and  _78
REMARK   33  A    between atoms: _78  and  _79
REMARK   34  A    between atoms: _79  and  _80
REMARK   35  A    between atoms: _83  and  _85
REMARK   36  A    between atoms: _85  and  _86
REMARK   37  A    between atoms: _85  and  _88
REMARK   38  A    between atoms: _88  and  _89
REMARK   39  A    between atoms: _89  and  _90
REMARK   40  A    between atoms: _90  and  _91
REMARK   41  A    between atoms: _91  and  _92
REMARK   42  A    between atoms: _96  and  _98
REMARK   43  A    between atoms: _98  and  _99
REMARK   44  A    between atoms: _98  and  _101
REMARK   45  A    between atoms: _101  and  _102
REMARK   46  A    between atoms: _107  and  _109
REMARK   47  A    between atoms: _109  and  _110
REMARK   48  A    between atoms: _112  and  _114
REMARK   49  A    between atoms: _114  and  _115
REMARK   50  A    between atoms: _114  and  _117
REMARK   51  A    between atoms: _117  and  _118
REMARK   52  A    between atoms: _118  and  _119
REMARK   53  A    between atoms: _119  and  _120
REMARK   54  A    between atoms: _129  and  _131
REMARK   55  A    between atoms: _131  and  _132
REMARK   56  A    between atoms: _131  and  _134
REMARK   57  A    between atoms: _134  and  _135
REMARK   58  A    between atoms: _140  and  _141
REMARK   59  A    between atoms: _143  and  _145
REMARK   60  A    between atoms: _145  and  _146
REMARK   61  A    between atoms: _145  and  _148
REMARK   62  A    between atoms: _148  and  _149
REMARK   63  A    between atoms: _152  and  _154
REMARK   64  A    between atoms: _154  and  _155
REMARK   65  A    between atoms: _154  and  _157
REMARK   66  A    between atoms: _159  and  _161
REMARK   67  A    between atoms: _161  and  _162
REMARK   68  A    between atoms: _161  and  _164
REMARK   69  A    between atoms: _164  and  _165
REMARK   70  A    between atoms: _165  and  _166
REMARK   71  A    between atoms: _166  and  _167
REMARK   72  A    between atoms: _176  and  _178
REMARK   73  A    between atoms: _178  and  _179
REMARK   74  A    between atoms: _178  and  _181
REMARK   75  A    between atoms: _181  and  _182
REMARK   76  A    between atoms: _185  and  _187
REMARK   77  A    between atoms: _187  and  _188
REMARK   78  A    between atoms: _187  and  _190
REMARK   79  A    between atoms: _190  and  _191
REMARK   80  A    between atoms: _194  and  _196
REMARK   81  A    between atoms: _196  and  _197
REMARK   82  A    between atoms: _196  and  _199
REMARK   83  A    between atoms: _202  and  _204
REMARK   84  A    between atoms: _204  and  _205
REMARK   85  A    between atoms: _204  and  _207
REMARK   86  A    between atoms: _207  and  _208
REMARK   87  A    between atoms: _213  and  _215
REMARK   88  A    between atoms: _215  and  _216
REMARK   89  A    between atoms: _215  and  _218
REMARK   90  A    between atoms: _218  and  _219
REMARK   91  A    between atoms: _219  and  _220
REMARK   92  A    between atoms: _220  and  _221
REMARK   93  A    between atoms: _230  and  _232
REMARK   94  A    between atoms: _232  and  _233
REMARK   95  A    between atoms: _232  and  _235
REMARK   96  A    between atoms: _235  and  _236
REMARK   97  A    between atoms: _239  and  _241
REMARK   98  A    between atoms: _241  and  _242
REMARK   99  A    between atoms: _244  and  _246
REMARK  100  A    between atoms: _246  and  _247
REMARK  101  A    between atoms: _246  and  _249
REMARK  102  A    between atoms: _249  and  _250
REMARK  103  A    between atoms: _253  and  _255
REMARK  104  A    between atoms: _255  and  _256
REMARK  105  A    between atoms: _255  and  _258
REMARK  106  A    between atoms: _258  and  _259
REMARK  107  A    between atoms: _259  and  _260
REMARK  108  A    between atoms: _260  and  _261
REMARK                            x       y       z     vdW  Elec       q    Type
REMARK                         _______ _______ _______ _____ _____    ______ ____
ROOT
ATOM      1  O   HOH     1       7.817  -7.205  -2.737  0.00  0.00    +0.000 OA
ENDROOT
TORSDOF 0
REMARK  Name = ../refined-set-2016/4np3/4np3_pocket.pdb
REMARK  108 active torsions:
REMARK  status: ('A' for Active; 'I' for Inactive)
REMARK    1  A    between atoms: _1  and  _3
REMARK    2  A    between atoms: _3  and  _4
REMARK    3  A    between atoms: _3  and  _6
REMARK    4  A    between atoms: _6  and  _7
REMARK    5  A    between atoms: _10  and  _12
REMARK    6  A    between atoms: _12  and  _13
REMARK    7  A    between atoms: _12  and  _15
REMARK    8  A    between atoms: _15  and  _16
REMARK    9  A    between atoms: _19  and  _21
REMARK   10  A    between atoms: _21  and  _22
REMARK   11  A    between atoms: _21  and  _24
REMARK   12  A    between atoms: _24  and  _25
REMARK   13  A    between atoms: _30  and  _32
REMARK   14  A    between atoms: _32  and  _33
REMARK   15  A    between atoms: _32  and  _35
REMARK   16  A    between atoms: _38  and  _40
REMARK   17  A    between atoms: _40  and  _41
REMARK   18  A    between atoms: _40  and  _43
REMARK   19  A    between atoms: _43  and  _44
REMARK   20  A    between atoms: _47  and  _49
REMARK   21  A    between atoms: _49  and  _50
REMARK   22  A    between atoms: _49  and  _52
REMARK   23  A    between atoms: _54  and  _56
REMARK   24  A    between atoms: _56  and  _57
REMARK   25  A    between atoms: _56  and  _59
REMARK   26  A    between atoms: _59  and  _60
REMARK   27  A    between atoms: _65  and  _67
REMARK   28  A    between atoms: _67  and  _68
REMARK   29  A    between atoms: _67  and  _70
REMARK   30  A    between atoms: _73  and  _75
REMARK   31  A    between atoms: _75  and  _76
REMARK   32  A    between atoms: _75  and  _78
REMARK   33  A    between atoms: _78  and  _79
REMARK   34  A    between atoms: _79  and  _80
REMARK   35  A    between atoms: _83  and  _85
REMARK   36  A    between atoms: _85  and  _86
REMARK   37  A    between atoms: _85  and  _88
REMARK   38  A    between atoms: _88  and  _89
REMARK   39  A    between atoms: _89  and  _90
REMARK   40  A    between atoms: _90  and  _91
REMARK   41  A    between atoms: _91  and  _92
REMARK   42  A    between atoms: _96  and  _98
REMARK   43  A    between atoms: _98  and  _99
REMARK   44  A    between atoms: _98  and  _101
REMARK   45  A    between atoms: _101  and  _102
REMARK   46  A    between atoms: _107  and  _109
REMARK   47  A    between atoms: _109  and  _110
REMARK   48  A    between atoms: _112  and  _114
REMARK   49  A    between atoms: _114  and  _115
REMARK   50  A    between atoms: _114  and  _117
REMARK   51  A    between atoms: _117  and  _118
REMARK   52  A    between atoms: _118  and  _119
REMARK   53  A    between atoms: _119  and  _120
REMARK   54  A    between atoms: _129  and  _131
REMARK   55  A    between atoms: _131  and  _132
REMARK   56  A    between atoms: _131  and  _134
REMARK   57  A    between atoms: _134  and  _135
REMARK   58  A    between atoms: _140  and  _141
REMARK   59  A    between atoms: _143  and  _145
REMARK   60  A    between atoms: _145  and  _146
REMARK   61  A    between atoms: _145  and  _148
REMARK   62  A    between atoms: _148  and  _149
REMARK   63  A    between atoms: _152  and  _154
REMARK   64  A    between atoms: _154  and  _155
REMARK   65  A    between atoms: _154  and  _157
REMARK   66  A    between atoms: _159  and  _161
REMARK   67  A    between atoms: _161  and  _162
REMARK   68  A    between atoms: _161  and  _164
REMARK   69  A    between atoms: _164  and  _165
REMARK   70  A    between atoms: _165  and  _166
REMARK   71  A    between atoms: _166  and  _167
REMARK   72  A    between atoms: _176  and  _178
REMARK   73  A    between atoms: _178  and  _179
REMARK   74  A    between atoms: _178  and  _181
REMARK   75  A    between atoms: _181  and  _182
REMARK   76  A    between atoms: _185  and  _187
REMARK   77  A    between atoms: _187  and  _188
REMARK   78  A    between atoms: _187  and  _190
REMARK   79  A    between atoms: _190  and  _191
REMARK   80  A    between atoms: _194  and  _196
REMARK   81  A    between atoms: _196  and  _197
REMARK   82  A    between atoms: _196  and  _199
REMARK   83  A    between atoms: _202  and  _204
REMARK   84  A    between atoms: _204  and  _205
REMARK   85  A    between atoms: _204  and  _207
REMARK   86  A    between atoms: _207  and  _208
REMARK   87  A    between atoms: _213  and  _215
REMARK   88  A    between atoms: _215  and  _216
REMARK   89  A    between atoms: _215  and  _218
REMARK   90  A    between atoms: _218  and  _219
REMARK   91  A    between atoms: _219  and  _220
REMARK   92  A    between atoms: _220  and  _221
REMARK   93  A    between atoms: _230  and  _232
REMARK   94  A    between atoms: _232  and  _233
REMARK   95  A    between atoms: _232  and  _235
REMARK   96  A    between atoms: _235  and  _236
REMARK   97  A    between atoms: _239  and  _241
REMARK   98  A    between atoms: _241  and  _242
REMARK   99  A    between atoms: _244  and  _246
REMARK  100  A    between atoms: _246  and  _247
REMARK  101  A    between atoms: _246  and  _249
REMARK  102  A    between atoms: _249  and  _250
REMARK  103  A    between atoms: _253  and  _255
REMARK  104  A    between atoms: _255  and  _256
REMARK  105  A    between atoms: _255  and  _258
REMARK  106  A    between atoms: _258  and  _259
REMARK  107  A    between atoms: _259  and  _260
REMARK  108  A    between atoms: _260  and  _261
REMARK                            x       y       z     vdW  Elec       q    Type
REMARK                         _______ _______ _______ _____ _____    ______ ____
ROOT
ATOM      1  O   HOH     1       6.101  -7.163  -4.944  0.00  0.00    +0.000 OA
ENDROOT
TORSDOF 0
REMARK  Name = ../refined-set-2016/4np3/4np3_pocket.pdb
REMARK  108 active torsions:
REMARK  status: ('A' for Active; 'I' for Inactive)
REMARK    1  A    between atoms: _1  and  _3
REMARK    2  A    between atoms: _3  and  _4
REMARK    3  A    between atoms: _3  and  _6
REMARK    4  A    between atoms: _6  and  _7
REMARK    5  A    between atoms: _10  and  _12
REMARK    6  A    between atoms: _12  and  _13
REMARK    7  A    between atoms: _12  and  _15
REMARK    8  A    between atoms: _15  and  _16
REMARK    9  A    between atoms: _19  and  _21
REMARK   10  A    between atoms: _21  and  _22
REMARK   11  A    between atoms: _21  and  _24
REMARK   12  A    between atoms: _24  and  _25
REMARK   13  A    between atoms: _30  and  _32
REMARK   14  A    between atoms: _32  and  _33
REMARK   15  A    between atoms: _32  and  _35
REMARK   16  A    between atoms: _38  and  _40
REMARK   17  A    between atoms: _40  and  _41
REMARK   18  A    between atoms: _40  and  _43
REMARK   19  A    between atoms: _43  and  _44
REMARK   20  A    between atoms: _47  and  _49
REMARK   21  A    between atoms: _49  and  _50
REMARK   22  A    between atoms: _49  and  _52
REMARK   23  A    between atoms: _54  and  _56
REMARK   24  A    between atoms: _56  and  _57
REMARK   25  A    between atoms: _56  and  _59
REMARK   26  A    between atoms: _59  and  _60
REMARK   27  A    between atoms: _65  and  _67
REMARK   28  A    between atoms: _67  and  _68
REMARK   29  A    between atoms: _67  and  _70
REMARK   30  A    between atoms: _73  and  _75
REMARK   31  A    between atoms: _75  and  _76
REMARK   32  A    between atoms: _75  and  _78
REMARK   33  A    between atoms: _78  and  _79
REMARK   34  A    between atoms: _79  and  _80
REMARK   35  A    between atoms: _83  and  _85
REMARK   36  A    between atoms: _85  and  _86
REMARK   37  A    between atoms: _85  and  _88
REMARK   38  A    between atoms: _88  and  _89
REMARK   39  A    between atoms: _89  and  _90
REMARK   40  A    between atoms: _90  and  _91
REMARK   41  A    between atoms: _91  and  _92
REMARK   42  A    between atoms: _96  and  _98
REMARK   43  A    between atoms: _98  and  _99
REMARK   44  A    between atoms: _98  and  _101
REMARK   45  A    between atoms: _101  and  _102
REMARK   46  A    between atoms: _107  and  _109
REMARK   47  A    between atoms: _109  and  _110
REMARK   48  A    between atoms: _112  and  _114
REMARK   49  A    between atoms: _114  and  _115
REMARK   50  A    between atoms: _114  and  _117
REMARK   51  A    between atoms: _117  and  _118
REMARK   52  A    between atoms: _118  and  _119
REMARK   53  A    between atoms: _119  and  _120
REMARK   54  A    between atoms: _129  and  _131
REMARK   55  A    between atoms: _131  and  _132
REMARK   56  A    between atoms: _131  and  _134
REMARK   57  A    between atoms: _134  and  _135
REMARK   58  A    between atoms: _140  and  _141
REMARK   59  A    between atoms: _143  and  _145
REMARK   60  A    between atoms: _145  and  _146
REMARK   61  A    between atoms: _145  and  _148
REMARK   62  A    between atoms: _148  and  _149
REMARK   63  A    between atoms: _152  and  _154
REMARK   64  A    between atoms: _154  and  _155
REMARK   65  A    between atoms: _154  and  _157
REMARK   66  A    between atoms: _159  and  _161
REMARK   67  A    between atoms: _161  and  _162
REMARK   68  A    between atoms: _161  and  _164
REMARK   69  A    between atoms: _164  and  _165
REMARK   70  A    between atoms: _165  and  _166
REMARK   71  A    between atoms: _166  and  _167
REMARK   72  A    between atoms: _176  and  _178
REMARK   73  A    between atoms: _178  and  _179
REMARK   74  A    between atoms: _178  and  _181
REMARK   75  A    between atoms: _181  and  _182
REMARK   76  A    between atoms: _185  and  _187
REMARK   77  A    between atoms: _187  and  _188
REMARK   78  A    between atoms: _187  and  _190
REMARK   79  A    between atoms: _190  and  _191
REMARK   80  A    between atoms: _194  and  _196
REMARK   81  A    between atoms: _196  and  _197
REMARK   82  A    between atoms: _196  and  _199
REMARK   83  A    between atoms: _202  and  _204
REMARK   84  A    between atoms: _204  and  _205
REMARK   85  A    between atoms: _204  and  _207
REMARK   86  A    between atoms: _207  and  _208
REMARK   87  A    between atoms: _213  and  _215
REMARK   88  A    between atoms: _215  and  _216
REMARK   89  A    between atoms: _215  and  _218
REMARK   90  A    between atoms: _218  and  _219
REMARK   91  A    between atoms: _219  and  _220
REMARK   92  A    between atoms: _220  and  _221
REMARK   93  A    between atoms: _230  and  _232
REMARK   94  A    between atoms: _232  and  _233
REMARK   95  A    between atoms: _232  and  _235
REMARK   96  A    between atoms: _235  and  _236
REMARK   97  A    between atoms: _239  and  _241
REMARK   98  A    between atoms: _241  and  _242
REMARK   99  A    between atoms: _244  and  _246
REMARK  100  A    between atoms: _246  and  _247
REMARK  101  A    between atoms: _246  and  _249
REMARK  102  A    between atoms: _249  and  _250
REMARK  103  A    between atoms: _253  and  _255
REMARK  104  A    between atoms: _255  and  _256
REMARK  105  A    between atoms: _255  and  _258
REMARK  106  A    between atoms: _258  and  _259
REMARK  107  A    between atoms: _259  and  _260
REMARK  108  A    between atoms: _260  and  _261
REMARK                            x       y       z     vdW  Elec       q    Type
REMARK                         _______ _______ _______ _____ _____    ______ ____
ROOT
ATOM      1  O   HOH     1       7.061  -9.287   2.895  0.00  0.00    +0.000 OA
ENDROOT
TORSDOF 0
REMARK  Name = ../refined-set-2016/4np3/4np3_pocket.pdb
REMARK  108 active torsions:
REMARK  status: ('A' for Active; 'I' for Inactive)
REMARK    1  A    between atoms: _1  and  _3
REMARK    2  A    between atoms: _3  and  _4
REMARK    3  A    between atoms: _3  and  _6
REMARK    4  A    between atoms: _6  and  _7
REMARK    5  A    between atoms: _10  and  _12
REMARK    6  A    between atoms: _12  and  _13
REMARK    7  A    between atoms: _12  and  _15
REMARK    8  A    between atoms: _15  and  _16
REMARK    9  A    between atoms: _19  and  _21
REMARK   10  A    between atoms: _21  and  _22
REMARK   11  A    between atoms: _21  and  _24
REMARK   12  A    between atoms: _24  and  _25
REMARK   13  A    between atoms: _30  and  _32
REMARK   14  A    between atoms: _32  and  _33
REMARK   15  A    between atoms: _32  and  _35
REMARK   16  A    between atoms: _38  and  _40
REMARK   17  A    between atoms: _40  and  _41
REMARK   18  A    between atoms: _40  and  _43
REMARK   19  A    between atoms: _43  and  _44
REMARK   20  A    between atoms: _47  and  _49
REMARK   21  A    between atoms: _49  and  _50
REMARK   22  A    between atoms: _49  and  _52
REMARK   23  A    between atoms: _54  and  _56
REMARK   24  A    between atoms: _56  and  _57
REMARK   25  A    between atoms: _56  and  _59
REMARK   26  A    between atoms: _59  and  _60
REMARK   27  A    between atoms: _65  and  _67
REMARK   28  A    between atoms: _67  and  _68
REMARK   29  A    between atoms: _67  and  _70
REMARK   30  A    between atoms: _73  and  _75
REMARK   31  A    between atoms: _75  and  _76
REMARK   32  A    between atoms: _75  and  _78
REMARK   33  A    between atoms: _78  and  _79
REMARK   34  A    between atoms: _79  and  _80
REMARK   35  A    between atoms: _83  and  _85
REMARK   36  A    between atoms: _85  and  _86
REMARK   37  A    between atoms: _85  and  _88
REMARK   38  A    between atoms: _88  and  _89
REMARK   39  A    between atoms: _89  and  _90
REMARK   40  A    between atoms: _90  and  _91
REMARK   41  A    between atoms: _91  and  _92
REMARK   42  A    between atoms: _96  and  _98
REMARK   43  A    between atoms: _98  and  _99
REMARK   44  A    between atoms: _98  and  _101
REMARK   45  A    between atoms: _101  and  _102
REMARK   46  A    between atoms: _107  and  _109
REMARK   47  A    between atoms: _109  and  _110
REMARK   48  A    between atoms: _112  and  _114
REMARK   49  A    between atoms: _114  and  _115
REMARK   50  A    between atoms: _114  and  _117
REMARK   51  A    between atoms: _117  and  _118
REMARK   52  A    between atoms: _118  and  _119
REMARK   53  A    between atoms: _119  and  _120
REMARK   54  A    between atoms: _129  and  _131
REMARK   55  A    between atoms: _131  and  _132
REMARK   56  A    between atoms: _131  and  _134
REMARK   57  A    between atoms: _134  and  _135
REMARK   58  A    between atoms: _140  and  _141
REMARK   59  A    between atoms: _143  and  _145
REMARK   60  A    between atoms: _145  and  _146
REMARK   61  A    between atoms: _145  and  _148
REMARK   62  A    between atoms: _148  and  _149
REMARK   63  A    between atoms: _152  and  _154
REMARK   64  A    between atoms: _154  and  _155
REMARK   65  A    between atoms: _154  and  _157
REMARK   66  A    between atoms: _159  and  _161
REMARK   67  A    between atoms: _161  and  _162
REMARK   68  A    between atoms: _161  and  _164
REMARK   69  A    between atoms: _164  and  _165
REMARK   70  A    between atoms: _165  and  _166
REMARK   71  A    between atoms: _166  and  _167
REMARK   72  A    between atoms: _176  and  _178
REMARK   73  A    between atoms: _178  and  _179
REMARK   74  A    between atoms: _178  and  _181
REMARK   75  A    between atoms: _181  and  _182
REMARK   76  A    between atoms: _185  and  _187
REMARK   77  A    between atoms: _187  and  _188
REMARK   78  A    between atoms: _187  and  _190
REMARK   79  A    between atoms: _190  and  _191
REMARK   80  A    between atoms: _194  and  _196
REMARK   81  A    between atoms: _196  and  _197
REMARK   82  A    between atoms: _196  and  _199
REMARK   83  A    between atoms: _202  and  _204
REMARK   84  A    between atoms: _204  and  _205
REMARK   85  A    between atoms: _204  and  _207
REMARK   86  A    between atoms: _207  and  _208
REMARK   87  A    between atoms: _213  and  _215
REMARK   88  A    between atoms: _215  and  _216
REMARK   89  A    between atoms: _215  and  _218
REMARK   90  A    between atoms: _218  and  _219
REMARK   91  A    between atoms: _219  and  _220
REMARK   92  A    between atoms: _220  and  _221
REMARK   93  A    between atoms: _230  and  _232
REMARK   94  A    between atoms: _232  and  _233
REMARK   95  A    between atoms: _232  and  _235
REMARK   96  A    between atoms: _235  and  _236
REMARK   97  A    between atoms: _239  and  _241
REMARK   98  A    between atoms: _241  and  _242
REMARK   99  A    between atoms: _244  and  _246
REMARK  100  A    between atoms: _246  and  _247
REMARK  101  A    between atoms: _246  and  _249
REMARK  102  A    between atoms: _249  and  _250
REMARK  103  A    between atoms: _253  and  _255
REMARK  104  A    between atoms: _255  and  _256
REMARK  105  A    between atoms: _255  and  _258
REMARK  106  A    between atoms: _258  and  _259
REMARK  107  A    between atoms: _259  and  _260
REMARK  108  A    between atoms: _260  and  _261
REMARK                            x       y       z     vdW  Elec       q    Type
REMARK                         _______ _______ _______ _____ _____    ______ ____
ROOT
ATOM      1  O   HOH     1      15.976   2.017   3.003  0.00  0.00    +0.000 OA
ENDROOT
TORSDOF 0
REMARK  Name = ../refined-set-2016/4np3/4np3_pocket.pdb
REMARK  108 active torsions:
REMARK  status: ('A' for Active; 'I' for Inactive)
REMARK    1  A    between atoms: _1  and  _3
REMARK    2  A    between atoms: _3  and  _4
REMARK    3  A    between atoms: _3  and  _6
REMARK    4  A    between atoms: _6  and  _7
REMARK    5  A    between atoms: _10  and  _12
REMARK    6  A    between atoms: _12  and  _13
REMARK    7  A    between atoms: _12  and  _15
REMARK    8  A    between atoms: _15  and  _16
REMARK    9  A    between atoms: _19  and  _21
REMARK   10  A    between atoms: _21  and  _22
REMARK   11  A    between atoms: _21  and  _24
REMARK   12  A    between atoms: _24  and  _25
REMARK   13  A    between atoms: _30  and  _32
REMARK   14  A    between atoms: _32  and  _33
REMARK   15  A    between atoms: _32  and  _35
REMARK   16  A    between atoms: _38  and  _40
REMARK   17  A    between atoms: _40  and  _41
REMARK   18  A    between atoms: _40  and  _43
REMARK   19  A    between atoms: _43  and  _44
REMARK   20  A    between atoms: _47  and  _49
REMARK   21  A    between atoms: _49  and  _50
REMARK   22  A    between atoms: _49  and  _52
REMARK   23  A    between atoms: _54  and  _56
REMARK   24  A    between atoms: _56  and  _57
REMARK   25  A    between atoms: _56  and  _59
REMARK   26  A    between atoms: _59  and  _60
REMARK   27  A    between atoms: _65  and  _67
REMARK   28  A    between atoms: _67  and  _68
REMARK   29  A    between atoms: _67  and  _70
REMARK   30  A    between atoms: _73  and  _75
REMARK   31  A    between atoms: _75  and  _76
REMARK   32  A    between atoms: _75  and  _78
REMARK   33  A    between atoms: _78  and  _79
REMARK   34  A    between atoms: _79  and  _80
REMARK   35  A    between atoms: _83  and  _85
REMARK   36  A    between atoms: _85  and  _86
REMARK   37  A    between atoms: _85  and  _88
REMARK   38  A    between atoms: _88  and  _89
REMARK   39  A    between atoms: _89  and  _90
REMARK   40  A    between atoms: _90  and  _91
REMARK   41  A    between atoms: _91  and  _92
REMARK   42  A    between atoms: _96  and  _98
REMARK   43  A    between atoms: _98  and  _99
REMARK   44  A    between atoms: _98  and  _101
REMARK   45  A    between atoms: _101  and  _102
REMARK   46  A    between atoms: _107  and  _109
REMARK   47  A    between atoms: _109  and  _110
REMARK   48  A    between atoms: _112  and  _114
REMARK   49  A    between atoms: _114  and  _115
REMARK   50  A    between atoms: _114  and  _117
REMARK   51  A    between atoms: _117  and  _118
REMARK   52  A    between atoms: _118  and  _119
REMARK   53  A    between atoms: _119  and  _120
REMARK   54  A    between atoms: _129  and  _131
REMARK   55  A    between atoms: _131  and  _132
REMARK   56  A    between atoms: _131  and  _134
REMARK   57  A    between atoms: _134  and  _135
REMARK   58  A    between atoms: _140  and  _141
REMARK   59  A    between atoms: _143  and  _145
REMARK   60  A    between atoms: _145  and  _146
REMARK   61  A    between atoms: _145  and  _148
REMARK   62  A    between atoms: _148  and  _149
REMARK   63  A    between atoms: _152  and  _154
REMARK   64  A    between atoms: _154  and  _155
REMARK   65  A    between atoms: _154  and  _157
REMARK   66  A    between atoms: _159  and  _161
REMARK   67  A    between atoms: _161  and  _162
REMARK   68  A    between atoms: _161  and  _164
REMARK   69  A    between atoms: _164  and  _165
REMARK   70  A    between atoms: _165  and  _166
REMARK   71  A    between atoms: _166  and  _167
REMARK   72  A    between atoms: _176  and  _178
REMARK   73  A    between atoms: _178  and  _179
REMARK   74  A    between atoms: _178  and  _181
REMARK   75  A    between atoms: _181  and  _182
REMARK   76  A    between atoms: _185  and  _187
REMARK   77  A    between atoms: _187  and  _188
REMARK   78  A    between atoms: _187  and  _190
REMARK   79  A    between atoms: _190  and  _191
REMARK   80  A    between atoms: _194  and  _196
REMARK   81  A    between atoms: _196  and  _197
REMARK   82  A    between atoms: _196  and  _199
REMARK   83  A    between atoms: _202  and  _204
REMARK   84  A    between atoms: _204  and  _205
REMARK   85  A    between atoms: _204  and  _207
REMARK   86  A    between atoms: _207  and  _208
REMARK   87  A    between atoms: _213  and  _215
REMARK   88  A    between atoms: _215  and  _216
REMARK   89  A    between atoms: _215  and  _218
REMARK   90  A    between atoms: _218  and  _219
REMARK   91  A    between atoms: _219  and  _220
REMARK   92  A    between atoms: _220  and  _221
REMARK   93  A    between atoms: _230  and  _232
REMARK   94  A    between atoms: _232  and  _233
REMARK   95  A    between atoms: _232  and  _235
REMARK   96  A    between atoms: _235  and  _236
REMARK   97  A    between atoms: _239  and  _241
REMARK   98  A    between atoms: _241  and  _242
REMARK   99  A    between atoms: _244  and  _246
REMARK  100  A    between atoms: _246  and  _247
REMARK  101  A    between atoms: _246  and  _249
REMARK  102  A    between atoms: _249  and  _250
REMARK  103  A    between atoms: _253  and  _255
REMARK  104  A    between atoms: _255  and  _256
REMARK  105  A    between atoms: _255  and  _258
REMARK  106  A    between atoms: _258  and  _259
REMARK  107  A    between atoms: _259  and  _260
REMARK  108  A    between atoms: _260  and  _261
REMARK                            x       y       z     vdW  Elec       q    Type
REMARK                         _______ _______ _______ _____ _____    ______ ____
ROOT
ATOM      1  O   HOH     1      14.168  -4.386   4.240  0.00  0.00    +0.000 OA
ENDROOT
TORSDOF 0
REMARK  Name = ../refined-set-2016/4np3/4np3_pocket.pdb
REMARK  108 active torsions:
REMARK  status: ('A' for Active; 'I' for Inactive)
REMARK    1  A    between atoms: _1  and  _3
REMARK    2  A    between atoms: _3  and  _4
REMARK    3  A    between atoms: _3  and  _6
REMARK    4  A    between atoms: _6  and  _7
REMARK    5  A    between atoms: _10  and  _12
REMARK    6  A    between atoms: _12  and  _13
REMARK    7  A    between atoms: _12  and  _15
REMARK    8  A    between atoms: _15  and  _16
REMARK    9  A    between atoms: _19  and  _21
REMARK   10  A    between atoms: _21  and  _22
REMARK   11  A    between atoms: _21  and  _24
REMARK   12  A    between atoms: _24  and  _25
REMARK   13  A    between atoms: _30  and  _32
REMARK   14  A    between atoms: _32  and  _33
REMARK   15  A    between atoms: _32  and  _35
REMARK   16  A    between atoms: _38  and  _40
REMARK   17  A    between atoms: _40  and  _41
REMARK   18  A    between atoms: _40  and  _43
REMARK   19  A    between atoms: _43  and  _44
REMARK   20  A    between atoms: _47  and  _49
REMARK   21  A    between atoms: _49  and  _50
REMARK   22  A    between atoms: _49  and  _52
REMARK   23  A    between atoms: _54  and  _56
REMARK   24  A    between atoms: _56  and  _57
REMARK   25  A    between atoms: _56  and  _59
REMARK   26  A    between atoms: _59  and  _60
REMARK   27  A    between atoms: _65  and  _67
REMARK   28  A    between atoms: _67  and  _68
REMARK   29  A    between atoms: _67  and  _70
REMARK   30  A    between atoms: _73  and  _75
REMARK   31  A    between atoms: _75  and  _76
REMARK   32  A    between atoms: _75  and  _78
REMARK   33  A    between atoms: _78  and  _79
REMARK   34  A    between atoms: _79  and  _80
REMARK   35  A    between atoms: _83  and  _85
REMARK   36  A    between atoms: _85  and  _86
REMARK   37  A    between atoms: _85  and  _88
REMARK   38  A    between atoms: _88  and  _89
REMARK   39  A    between atoms: _89  and  _90
REMARK   40  A    between atoms: _90  and  _91
REMARK   41  A    between atoms: _91  and  _92
REMARK   42  A    between atoms: _96  and  _98
REMARK   43  A    between atoms: _98  and  _99
REMARK   44  A    between atoms: _98  and  _101
REMARK   45  A    between atoms: _101  and  _102
REMARK   46  A    between atoms: _107  and  _109
REMARK   47  A    between atoms: _109  and  _110
REMARK   48  A    between atoms: _112  and  _114
REMARK   49  A    between atoms: _114  and  _115
REMARK   50  A    between atoms: _114  and  _117
REMARK   51  A    between atoms: _117  and  _118
REMARK   52  A    between atoms: _118  and  _119
REMARK   53  A    between atoms: _119  and  _120
REMARK   54  A    between atoms: _129  and  _131
REMARK   55  A    between atoms: _131  and  _132
REMARK   56  A    between atoms: _131  and  _134
REMARK   57  A    between atoms: _134  and  _135
REMARK   58  A    between atoms: _140  and  _141
REMARK   59  A    between atoms: _143  and  _145
REMARK   60  A    between atoms: _145  and  _146
REMARK   61  A    between atoms: _145  and  _148
REMARK   62  A    between atoms: _148  and  _149
REMARK   63  A    between atoms: _152  and  _154
REMARK   64  A    between atoms: _154  and  _155
REMARK   65  A    between atoms: _154  and  _157
REMARK   66  A    between atoms: _159  and  _161
REMARK   67  A    between atoms: _161  and  _162
REMARK   68  A    between atoms: _161  and  _164
REMARK   69  A    between atoms: _164  and  _165
REMARK   70  A    between atoms: _165  and  _166
REMARK   71  A    between atoms: _166  and  _167
REMARK   72  A    between atoms: _176  and  _178
REMARK   73  A    between atoms: _178  and  _179
REMARK   74  A    between atoms: _178  and  _181
REMARK   75  A    between atoms: _181  and  _182
REMARK   76  A    between atoms: _185  and  _187
REMARK   77  A    between atoms: _187  and  _188
REMARK   78  A    between atoms: _187  and  _190
REMARK   79  A    between atoms: _190  and  _191
REMARK   80  A    between atoms: _194  and  _196
REMARK   81  A    between atoms: _196  and  _197
REMARK   82  A    between atoms: _196  and  _199
REMARK   83  A    between atoms: _202  and  _204
REMARK   84  A    between atoms: _204  and  _205
REMARK   85  A    between atoms: _204  and  _207
REMARK   86  A    between atoms: _207  and  _208
REMARK   87  A    between atoms: _213  and  _215
REMARK   88  A    between atoms: _215  and  _216
REMARK   89  A    between atoms: _215  and  _218
REMARK   90  A    between atoms: _218  and  _219
REMARK   91  A    between atoms: _219  and  _220
REMARK   92  A    between atoms: _220  and  _221
REMARK   93  A    between atoms: _230  and  _232
REMARK   94  A    between atoms: _232  and  _233
REMARK   95  A    between atoms: _232  and  _235
REMARK   96  A    between atoms: _235  and  _236
REMARK   97  A    between atoms: _239  and  _241
REMARK   98  A    between atoms: _241  and  _242
REMARK   99  A    between atoms: _244  and  _246
REMARK  100  A    between atoms: _246  and  _247
REMARK  101  A    between atoms: _246  and  _249
REMARK  102  A    between atoms: _249  and  _250
REMARK  103  A    between atoms: _253  and  _255
REMARK  104  A    between atoms: _255  and  _256
REMARK  105  A    between atoms: _255  and  _258
REMARK  106  A    between atoms: _258  and  _259
REMARK  107  A    between atoms: _259  and  _260
REMARK  108  A    between atoms: _260  and  _261
REMARK                            x       y       z     vdW  Elec       q    Type
REMARK                         _______ _______ _______ _____ _____    ______ ____
ROOT
ATOM      1  O   HOH     1      14.845   0.197  -0.548  0.00  0.00    +0.000 OA
ENDROOT
TORSDOF 0
REMARK  Name = ../refined-set-2016/4np3/4np3_pocket.pdb
REMARK  108 active torsions:
REMARK  status: ('A' for Active; 'I' for Inactive)
REMARK    1  A    between atoms: _1  and  _3
REMARK    2  A    between atoms: _3  and  _4
REMARK    3  A    between atoms: _3  and  _6
REMARK    4  A    between atoms: _6  and  _7
REMARK    5  A    between atoms: _10  and  _12
REMARK    6  A    between atoms: _12  and  _13
REMARK    7  A    between atoms: _12  and  _15
REMARK    8  A    between atoms: _15  and  _16
REMARK    9  A    between atoms: _19  and  _21
REMARK   10  A    between atoms: _21  and  _22
REMARK   11  A    between atoms: _21  and  _24
REMARK   12  A    between atoms: _24  and  _25
REMARK   13  A    between atoms: _30  and  _32
REMARK   14  A    between atoms: _32  and  _33
REMARK   15  A    between atoms: _32  and  _35
REMARK   16  A    between atoms: _38  and  _40
REMARK   17  A    between atoms: _40  and  _41
REMARK   18  A    between atoms: _40  and  _43
REMARK   19  A    between atoms: _43  and  _44
REMARK   20  A    between atoms: _47  and  _49
REMARK   21  A    between atoms: _49  and  _50
REMARK   22  A    between atoms: _49  and  _52
REMARK   23  A    between atoms: _54  and  _56
REMARK   24  A    between atoms: _56  and  _57
REMARK   25  A    between atoms: _56  and  _59
REMARK   26  A    between atoms: _59  and  _60
REMARK   27  A    between atoms: _65  and  _67
REMARK   28  A    between atoms: _67  and  _68
REMARK   29  A    between atoms: _67  and  _70
REMARK   30  A    between atoms: _73  and  _75
REMARK   31  A    between atoms: _75  and  _76
REMARK   32  A    between atoms: _75  and  _78
REMARK   33  A    between atoms: _78  and  _79
REMARK   34  A    between atoms: _79  and  _80
REMARK   35  A    between atoms: _83  and  _85
REMARK   36  A    between atoms: _85  and  _86
REMARK   37  A    between atoms: _85  and  _88
REMARK   38  A    between atoms: _88  and  _89
REMARK   39  A    between atoms: _89  and  _90
REMARK   40  A    between atoms: _90  and  _91
REMARK   41  A    between atoms: _91  and  _92
REMARK   42  A    between atoms: _96  and  _98
REMARK   43  A    between atoms: _98  and  _99
REMARK   44  A    between atoms: _98  and  _101
REMARK   45  A    between atoms: _101  and  _102
REMARK   46  A    between atoms: _107  and  _109
REMARK   47  A    between atoms: _109  and  _110
REMARK   48  A    between atoms: _112  and  _114
REMARK   49  A    between atoms: _114  and  _115
REMARK   50  A    between atoms: _114  and  _117
REMARK   51  A    between atoms: _117  and  _118
REMARK   52  A    between atoms: _118  and  _119
REMARK   53  A    between atoms: _119  and  _120
REMARK   54  A    between atoms: _129  and  _131
REMARK   55  A    between atoms: _131  and  _132
REMARK   56  A    between atoms: _131  and  _134
REMARK   57  A    between atoms: _134  and  _135
REMARK   58  A    between atoms: _140  and  _141
REMARK   59  A    between atoms: _143  and  _145
REMARK   60  A    between atoms: _145  and  _146
REMARK   61  A    between atoms: _145  and  _148
REMARK   62  A    between atoms: _148  and  _149
REMARK   63  A    between atoms: _152  and  _154
REMARK   64  A    between atoms: _154  and  _155
REMARK   65  A    between atoms: _154  and  _157
REMARK   66  A    between atoms: _159  and  _161
REMARK   67  A    between atoms: _161  and  _162
REMARK   68  A    between atoms: _161  and  _164
REMARK   69  A    between atoms: _164  and  _165
REMARK   70  A    between atoms: _165  and  _166
REMARK   71  A    between atoms: _166  and  _167
REMARK   72  A    between atoms: _176  and  _178
REMARK   73  A    between atoms: _178  and  _179
REMARK   74  A    between atoms: _178  and  _181
REMARK   75  A    between atoms: _181  and  _182
REMARK   76  A    between atoms: _185  and  _187
REMARK   77  A    between atoms: _187  and  _188
REMARK   78  A    between atoms: _187  and  _190
REMARK   79  A    between atoms: _190  and  _191
REMARK   80  A    between atoms: _194  and  _196
REMARK   81  A    between atoms: _196  and  _197
REMARK   82  A    between atoms: _196  and  _199
REMARK   83  A    between atoms: _202  and  _204
REMARK   84  A    between atoms: _204  and  _205
REMARK   85  A    between atoms: _204  and  _207
REMARK   86  A    between atoms: _207  and  _208
REMARK   87  A    between atoms: _213  and  _215
REMARK   88  A    between atoms: _215  and  _216
REMARK   89  A    between atoms: _215  and  _218
REMARK   90  A    between atoms: _218  and  _219
REMARK   91  A    between atoms: _219  and  _220
REMARK   92  A    between atoms: _220  and  _221
REMARK   93  A    between atoms: _230  and  _232
REMARK   94  A    between atoms: _232  and  _233
REMARK   95  A    between atoms: _232  and  _235
REMARK   96  A    between atoms: _235  and  _236
REMARK   97  A    between atoms: _239  and  _241
REMARK   98  A    between atoms: _241  and  _242
REMARK   99  A    between atoms: _244  and  _246
REMARK  100  A    between atoms: _246  and  _247
REMARK  101  A    between atoms: _246  and  _249
REMARK  102  A    between atoms: _249  and  _250
REMARK  103  A    between atoms: _253  and  _255
REMARK  104  A    between atoms: _255  and  _256
REMARK  105  A    between atoms: _255  and  _258
REMARK  106  A    between atoms: _258  and  _259
REMARK  107  A    between atoms: _259  and  _260
REMARK  108  A    between atoms: _260  and  _261
REMARK                            x       y       z     vdW  Elec       q    Type
REMARK                         _______ _______ _______ _____ _____    ______ ____
ROOT
ATOM      1  O   HOH     1      11.710  -4.070  10.749  0.00  0.00    +0.000 OA
ENDROOT
TORSDOF 0
REMARK  Name = ../refined-set-2016/4np3/4np3_pocket.pdb
REMARK  108 active torsions:
REMARK  status: ('A' for Active; 'I' for Inactive)
REMARK    1  A    between atoms: _1  and  _3
REMARK    2  A    between atoms: _3  and  _4
REMARK    3  A    between atoms: _3  and  _6
REMARK    4  A    between atoms: _6  and  _7
REMARK    5  A    between atoms: _10  and  _12
REMARK    6  A    between atoms: _12  and  _13
REMARK    7  A    between atoms: _12  and  _15
REMARK    8  A    between atoms: _15  and  _16
REMARK    9  A    between atoms: _19  and  _21
REMARK   10  A    between atoms: _21  and  _22
REMARK   11  A    between atoms: _21  and  _24
REMARK   12  A    between atoms: _24  and  _25
REMARK   13  A    between atoms: _30  and  _32
REMARK   14  A    between atoms: _32  and  _33
REMARK   15  A    between atoms: _32  and  _35
REMARK   16  A    between atoms: _38  and  _40
REMARK   17  A    between atoms: _40  and  _41
REMARK   18  A    between atoms: _40  and  _43
REMARK   19  A    between atoms: _43  and  _44
REMARK   20  A    between atoms: _47  and  _49
REMARK   21  A    between atoms: _49  and  _50
REMARK   22  A    between atoms: _49  and  _52
REMARK   23  A    between atoms: _54  and  _56
REMARK   24  A    between atoms: _56  and  _57
REMARK   25  A    between atoms: _56  and  _59
REMARK   26  A    between atoms: _59  and  _60
REMARK   27  A    between atoms: _65  and  _67
REMARK   28  A    between atoms: _67  and  _68
REMARK   29  A    between atoms: _67  and  _70
REMARK   30  A    between atoms: _73  and  _75
REMARK   31  A    between atoms: _75  and  _76
REMARK   32  A    between atoms: _75  and  _78
REMARK   33  A    between atoms: _78  and  _79
REMARK   34  A    between atoms: _79  and  _80
REMARK   35  A    between atoms: _83  and  _85
REMARK   36  A    between atoms: _85  and  _86
REMARK   37  A    between atoms: _85  and  _88
REMARK   38  A    between atoms: _88  and  _89
REMARK   39  A    between atoms: _89  and  _90
REMARK   40  A    between atoms: _90  and  _91
REMARK   41  A    between atoms: _91  and  _92
REMARK   42  A    between atoms: _96  and  _98
REMARK   43  A    between atoms: _98  and  _99
REMARK   44  A    between atoms: _98  and  _101
REMARK   45  A    between atoms: _101  and  _102
REMARK   46  A    between atoms: _107  and  _109
REMARK   47  A    between atoms: _109  and  _110
REMARK   48  A    between atoms: _112  and  _114
REMARK   49  A    between atoms: _114  and  _115
REMARK   50  A    between atoms: _114  and  _117
REMARK   51  A    between atoms: _117  and  _118
REMARK   52  A    between atoms: _118  and  _119
REMARK   53  A    between atoms: _119  and  _120
REMARK   54  A    between atoms: _129  and  _131
REMARK   55  A    between atoms: _131  and  _132
REMARK   56  A    between atoms: _131  and  _134
REMARK   57  A    between atoms: _134  and  _135
REMARK   58  A    between atoms: _140  and  _141
REMARK   59  A    between atoms: _143  and  _145
REMARK   60  A    between atoms: _145  and  _146
REMARK   61  A    between atoms: _145  and  _148
REMARK   62  A    between atoms: _148  and  _149
REMARK   63  A    between atoms: _152  and  _154
REMARK   64  A    between atoms: _154  and  _155
REMARK   65  A    between atoms: _154  and  _157
REMARK   66  A    between atoms: _159  and  _161
REMARK   67  A    between atoms: _161  and  _162
REMARK   68  A    between atoms: _161  and  _164
REMARK   69  A    between atoms: _164  and  _165
REMARK   70  A    between atoms: _165  and  _166
REMARK   71  A    between atoms: _166  and  _167
REMARK   72  A    between atoms: _176  and  _178
REMARK   73  A    between atoms: _178  and  _179
REMARK   74  A    between atoms: _178  and  _181
REMARK   75  A    between atoms: _181  and  _182
REMARK   76  A    between atoms: _185  and  _187
REMARK   77  A    between atoms: _187  and  _188
REMARK   78  A    between atoms: _187  and  _190
REMARK   79  A    between atoms: _190  and  _191
REMARK   80  A    between atoms: _194  and  _196
REMARK   81  A    between atoms: _196  and  _197
REMARK   82  A    between atoms: _196  and  _199
REMARK   83  A    between atoms: _202  and  _204
REMARK   84  A    between atoms: _204  and  _205
REMARK   85  A    between atoms: _204  and  _207
REMARK   86  A    between atoms: _207  and  _208
REMARK   87  A    between atoms: _213  and  _215
REMARK   88  A    between atoms: _215  and  _216
REMARK   89  A    between atoms: _215  and  _218
REMARK   90  A    between atoms: _218  and  _219
REMARK   91  A    between atoms: _219  and  _220
REMARK   92  A    between atoms: _220  and  _221
REMARK   93  A    between atoms: _230  and  _232
REMARK   94  A    between atoms: _232  and  _233
REMARK   95  A    between atoms: _232  and  _235
REMARK   96  A    between atoms: _235  and  _236
REMARK   97  A    between atoms: _239  and  _241
REMARK   98  A    between atoms: _241  and  _242
REMARK   99  A    between atoms: _244  and  _246
REMARK  100  A    between atoms: _246  and  _247
REMARK  101  A    between atoms: _246  and  _249
REMARK  102  A    between atoms: _249  and  _250
REMARK  103  A    between atoms: _253  and  _255
REMARK  104  A    between atoms: _255  and  _256
REMARK  105  A    between atoms: _255  and  _258
REMARK  106  A    between atoms: _258  and  _259
REMARK  107  A    between atoms: _259  and  _260
REMARK  108  A    between atoms: _260  and  _261
REMARK                            x       y       z     vdW  Elec       q    Type
REMARK                         _______ _______ _______ _____ _____    ______ ____
ROOT
ATOM      1  O   HOH     1      17.054   0.734  -6.660  0.00  0.00    +0.000 OA
ENDROOT
TORSDOF 0
REMARK  Name = ../refined-set-2016/4np3/4np3_pocket.pdb
REMARK  108 active torsions:
REMARK  status: ('A' for Active; 'I' for Inactive)
REMARK    1  A    between atoms: _1  and  _3
REMARK    2  A    between atoms: _3  and  _4
REMARK    3  A    between atoms: _3  and  _6
REMARK    4  A    between atoms: _6  and  _7
REMARK    5  A    between atoms: _10  and  _12
REMARK    6  A    between atoms: _12  and  _13
REMARK    7  A    between atoms: _12  and  _15
REMARK    8  A    between atoms: _15  and  _16
REMARK    9  A    between atoms: _19  and  _21
REMARK   10  A    between atoms: _21  and  _22
REMARK   11  A    between atoms: _21  and  _24
REMARK   12  A    between atoms: _24  and  _25
REMARK   13  A    between atoms: _30  and  _32
REMARK   14  A    between atoms: _32  and  _33
REMARK   15  A    between atoms: _32  and  _35
REMARK   16  A    between atoms: _38  and  _40
REMARK   17  A    between atoms: _40  and  _41
REMARK   18  A    between atoms: _40  and  _43
REMARK   19  A    between atoms: _43  and  _44
REMARK   20  A    between atoms: _47  and  _49
REMARK   21  A    between atoms: _49  and  _50
REMARK   22  A    between atoms: _49  and  _52
REMARK   23  A    between atoms: _54  and  _56
REMARK   24  A    between atoms: _56  and  _57
REMARK   25  A    between atoms: _56  and  _59
REMARK   26  A    between atoms: _59  and  _60
REMARK   27  A    between atoms: _65  and  _67
REMARK   28  A    between atoms: _67  and  _68
REMARK   29  A    between atoms: _67  and  _70
REMARK   30  A    between atoms: _73  and  _75
REMARK   31  A    between atoms: _75  and  _76
REMARK   32  A    between atoms: _75  and  _78
REMARK   33  A    between atoms: _78  and  _79
REMARK   34  A    between atoms: _79  and  _80
REMARK   35  A    between atoms: _83  and  _85
REMARK   36  A    between atoms: _85  and  _86
REMARK   37  A    between atoms: _85  and  _88
REMARK   38  A    between atoms: _88  and  _89
REMARK   39  A    between atoms: _89  and  _90
REMARK   40  A    between atoms: _90  and  _91
REMARK   41  A    between atoms: _91  and  _92
REMARK   42  A    between atoms: _96  and  _98
REMARK   43  A    between atoms: _98  and  _99
REMARK   44  A    between atoms: _98  and  _101
REMARK   45  A    between atoms: _101  and  _102
REMARK   46  A    between atoms: _107  and  _109
REMARK   47  A    between atoms: _109  and  _110
REMARK   48  A    between atoms: _112  and  _114
REMARK   49  A    between atoms: _114  and  _115
REMARK   50  A    between atoms: _114  and  _117
REMARK   51  A    between atoms: _117  and  _118
REMARK   52  A    between atoms: _118  and  _119
REMARK   53  A    between atoms: _119  and  _120
REMARK   54  A    between atoms: _129  and  _131
REMARK   55  A    between atoms: _131  and  _132
REMARK   56  A    between atoms: _131  and  _134
REMARK   57  A    between atoms: _134  and  _135
REMARK   58  A    between atoms: _140  and  _141
REMARK   59  A    between atoms: _143  and  _145
REMARK   60  A    between atoms: _145  and  _146
REMARK   61  A    between atoms: _145  and  _148
REMARK   62  A    between atoms: _148  and  _149
REMARK   63  A    between atoms: _152  and  _154
REMARK   64  A    between atoms: _154  and  _155
REMARK   65  A    between atoms: _154  and  _157
REMARK   66  A    between atoms: _159  and  _161
REMARK   67  A    between atoms: _161  and  _162
REMARK   68  A    between atoms: _161  and  _164
REMARK   69  A    between atoms: _164  and  _165
REMARK   70  A    between atoms: _165  and  _166
REMARK   71  A    between atoms: _166  and  _167
REMARK   72  A    between atoms: _176  and  _178
REMARK   73  A    between atoms: _178  and  _179
REMARK   74  A    between atoms: _178  and  _181
REMARK   75  A    between atoms: _181  and  _182
REMARK   76  A    between atoms: _185  and  _187
REMARK   77  A    between atoms: _187  and  _188
REMARK   78  A    between atoms: _187  and  _190
REMARK   79  A    between atoms: _190  and  _191
REMARK   80  A    between atoms: _194  and  _196
REMARK   81  A    between atoms: _196  and  _197
REMARK   82  A    between atoms: _196  and  _199
REMARK   83  A    between atoms: _202  and  _204
REMARK   84  A    between atoms: _204  and  _205
REMARK   85  A    between atoms: _204  and  _207
REMARK   86  A    between atoms: _207  and  _208
REMARK   87  A    between atoms: _213  and  _215
REMARK   88  A    between atoms: _215  and  _216
REMARK   89  A    between atoms: _215  and  _218
REMARK   90  A    between atoms: _218  and  _219
REMARK   91  A    between atoms: _219  and  _220
REMARK   92  A    between atoms: _220  and  _221
REMARK   93  A    between atoms: _230  and  _232
REMARK   94  A    between atoms: _232  and  _233
REMARK   95  A    between atoms: _232  and  _235
REMARK   96  A    between atoms: _235  and  _236
REMARK   97  A    between atoms: _239  and  _241
REMARK   98  A    between atoms: _241  and  _242
REMARK   99  A    between atoms: _244  and  _246
REMARK  100  A    between atoms: _246  and  _247
REMARK  101  A    between atoms: _246  and  _249
REMARK  102  A    between atoms: _249  and  _250
REMARK  103  A    between atoms: _253  and  _255
REMARK  104  A    between atoms: _255  and  _256
REMARK  105  A    between atoms: _255  and  _258
REMARK  106  A    between atoms: _258  and  _259
REMARK  107  A    between atoms: _259  and  _260
REMARK  108  A    between atoms: _260  and  _261
REMARK                            x       y       z     vdW  Elec       q    Type
REMARK                         _______ _______ _______ _____ _____    ______ ____
ROOT
ATOM      1  O   HOH     1       6.732  -6.924   1.433  0.00  0.00    +0.000 OA
ENDROOT
TORSDOF 0
REMARK  Name = ../refined-set-2016/4np3/4np3_pocket.pdb
REMARK  108 active torsions:
REMARK  status: ('A' for Active; 'I' for Inactive)
REMARK    1  A    between atoms: _1  and  _3
REMARK    2  A    between atoms: _3  and  _4
REMARK    3  A    between atoms: _3  and  _6
REMARK    4  A    between atoms: _6  and  _7
REMARK    5  A    between atoms: _10  and  _12
REMARK    6  A    between atoms: _12  and  _13
REMARK    7  A    between atoms: _12  and  _15
REMARK    8  A    between atoms: _15  and  _16
REMARK    9  A    between atoms: _19  and  _21
REMARK   10  A    between atoms: _21  and  _22
REMARK   11  A    between atoms: _21  and  _24
REMARK   12  A    between atoms: _24  and  _25
REMARK   13  A    between atoms: _30  and  _32
REMARK   14  A    between atoms: _32  and  _33
REMARK   15  A    between atoms: _32  and  _35
REMARK   16  A    between atoms: _38  and  _40
REMARK   17  A    between atoms: _40  and  _41
REMARK   18  A    between atoms: _40  and  _43
REMARK   19  A    between atoms: _43  and  _44
REMARK   20  A    between atoms: _47  and  _49
REMARK   21  A    between atoms: _49  and  _50
REMARK   22  A    between atoms: _49  and  _52
REMARK   23  A    between atoms: _54  and  _56
REMARK   24  A    between atoms: _56  and  _57
REMARK   25  A    between atoms: _56  and  _59
REMARK   26  A    between atoms: _59  and  _60
REMARK   27  A    between atoms: _65  and  _67
REMARK   28  A    between atoms: _67  and  _68
REMARK   29  A    between atoms: _67  and  _70
REMARK   30  A    between atoms: _73  and  _75
REMARK   31  A    between atoms: _75  and  _76
REMARK   32  A    between atoms: _75  and  _78
REMARK   33  A    between atoms: _78  and  _79
REMARK   34  A    between atoms: _79  and  _80
REMARK   35  A    between atoms: _83  and  _85
REMARK   36  A    between atoms: _85  and  _86
REMARK   37  A    between atoms: _85  and  _88
REMARK   38  A    between atoms: _88  and  _89
REMARK   39  A    between atoms: _89  and  _90
REMARK   40  A    between atoms: _90  and  _91
REMARK   41  A    between atoms: _91  and  _92
REMARK   42  A    between atoms: _96  and  _98
REMARK   43  A    between atoms: _98  and  _99
REMARK   44  A    between atoms: _98  and  _101
REMARK   45  A    between atoms: _101  and  _102
REMARK   46  A    between atoms: _107  and  _109
REMARK   47  A    between atoms: _109  and  _110
REMARK   48  A    between atoms: _112  and  _114
REMARK   49  A    between atoms: _114  and  _115
REMARK   50  A    between atoms: _114  and  _117
REMARK   51  A    between atoms: _117  and  _118
REMARK   52  A    between atoms: _118  and  _119
REMARK   53  A    between atoms: _119  and  _120
REMARK   54  A    between atoms: _129  and  _131
REMARK   55  A    between atoms: _131  and  _132
REMARK   56  A    between atoms: _131  and  _134
REMARK   57  A    between atoms: _134  and  _135
REMARK   58  A    between atoms: _140  and  _141
REMARK   59  A    between atoms: _143  and  _145
REMARK   60  A    between atoms: _145  and  _146
REMARK   61  A    between atoms: _145  and  _148
REMARK   62  A    between atoms: _148  and  _149
REMARK   63  A    between atoms: _152  and  _154
REMARK   64  A    between atoms: _154  and  _155
REMARK   65  A    between atoms: _154  and  _157
REMARK   66  A    between atoms: _159  and  _161
REMARK   67  A    between atoms: _161  and  _162
REMARK   68  A    between atoms: _161  and  _164
REMARK   69  A    between atoms: _164  and  _165
REMARK   70  A    between atoms: _165  and  _166
REMARK   71  A    between atoms: _166  and  _167
REMARK   72  A    between atoms: _176  and  _178
REMARK   73  A    between atoms: _178  and  _179
REMARK   74  A    between atoms: _178  and  _181
REMARK   75  A    between atoms: _181  and  _182
REMARK   76  A    between atoms: _185  and  _187
REMARK   77  A    between atoms: _187  and  _188
REMARK   78  A    between atoms: _187  and  _190
REMARK   79  A    between atoms: _190  and  _191
REMARK   80  A    between atoms: _194  and  _196
REMARK   81  A    between atoms: _196  and  _197
REMARK   82  A    between atoms: _196  and  _199
REMARK   83  A    between atoms: _202  and  _204
REMARK   84  A    between atoms: _204  and  _205
REMARK   85  A    between atoms: _204  and  _207
REMARK   86  A    between atoms: _207  and  _208
REMARK   87  A    between atoms: _213  and  _215
REMARK   88  A    between atoms: _215  and  _216
REMARK   89  A    between atoms: _215  and  _218
REMARK   90  A    between atoms: _218  and  _219
REMARK   91  A    between atoms: _219  and  _220
REMARK   92  A    between atoms: _220  and  _221
REMARK   93  A    between atoms: _230  and  _232
REMARK   94  A    between atoms: _232  and  _233
REMARK   95  A    between atoms: _232  and  _235
REMARK   96  A    between atoms: _235  and  _236
REMARK   97  A    between atoms: _239  and  _241
REMARK   98  A    between atoms: _241  and  _242
REMARK   99  A    between atoms: _244  and  _246
REMARK  100  A    between atoms: _246  and  _247
REMARK  101  A    between atoms: _246  and  _249
REMARK  102  A    between atoms: _249  and  _250
REMARK  103  A    between atoms: _253  and  _255
REMARK  104  A    between atoms: _255  and  _256
REMARK  105  A    between atoms: _255  and  _258
REMARK  106  A    between atoms: _258  and  _259
REMARK  107  A    between atoms: _259  and  _260
REMARK  108  A    between atoms: _260  and  _261
REMARK                            x       y       z     vdW  Elec       q    Type
REMARK                         _______ _______ _______ _____ _____    ______ ____
ROOT
ATOM      1  O   HOH     1       7.866  -9.316  11.118  0.00  0.00    +0.000 OA
ENDROOT
TORSDOF 0
REMARK  Name = ../refined-set-2016/4np3/4np3_pocket.pdb
REMARK  108 active torsions:
REMARK  status: ('A' for Active; 'I' for Inactive)
REMARK    1  A    between atoms: _1  and  _3
REMARK    2  A    between atoms: _3  and  _4
REMARK    3  A    between atoms: _3  and  _6
REMARK    4  A    between atoms: _6  and  _7
REMARK    5  A    between atoms: _10  and  _12
REMARK    6  A    between atoms: _12  and  _13
REMARK    7  A    between atoms: _12  and  _15
REMARK    8  A    between atoms: _15  and  _16
REMARK    9  A    between atoms: _19  and  _21
REMARK   10  A    between atoms: _21  and  _22
REMARK   11  A    between atoms: _21  and  _24
REMARK   12  A    between atoms: _24  and  _25
REMARK   13  A    between atoms: _30  and  _32
REMARK   14  A    between atoms: _32  and  _33
REMARK   15  A    between atoms: _32  and  _35
REMARK   16  A    between atoms: _38  and  _40
REMARK   17  A    between atoms: _40  and  _41
REMARK   18  A    between atoms: _40  and  _43
REMARK   19  A    between atoms: _43  and  _44
REMARK   20  A    between atoms: _47  and  _49
REMARK   21  A    between atoms: _49  and  _50
REMARK   22  A    between atoms: _49  and  _52
REMARK   23  A    between atoms: _54  and  _56
REMARK   24  A    between atoms: _56  and  _57
REMARK   25  A    between atoms: _56  and  _59
REMARK   26  A    between atoms: _59  and  _60
REMARK   27  A    between atoms: _65  and  _67
REMARK   28  A    between atoms: _67  and  _68
REMARK   29  A    between atoms: _67  and  _70
REMARK   30  A    between atoms: _73  and  _75
REMARK   31  A    between atoms: _75  and  _76
REMARK   32  A    between atoms: _75  and  _78
REMARK   33  A    between atoms: _78  and  _79
REMARK   34  A    between atoms: _79  and  _80
REMARK   35  A    between atoms: _83  and  _85
REMARK   36  A    between atoms: _85  and  _86
REMARK   37  A    between atoms: _85  and  _88
REMARK   38  A    between atoms: _88  and  _89
REMARK   39  A    between atoms: _89  and  _90
REMARK   40  A    between atoms: _90  and  _91
REMARK   41  A    between atoms: _91  and  _92
REMARK   42  A    between atoms: _96  and  _98
REMARK   43  A    between atoms: _98  and  _99
REMARK   44  A    between atoms: _98  and  _101
REMARK   45  A    between atoms: _101  and  _102
REMARK   46  A    between atoms: _107  and  _109
REMARK   47  A    between atoms: _109  and  _110
REMARK   48  A    between atoms: _112  and  _114
REMARK   49  A    between atoms: _114  and  _115
REMARK   50  A    between atoms: _114  and  _117
REMARK   51  A    between atoms: _117  and  _118
REMARK   52  A    between atoms: _118  and  _119
REMARK   53  A    between atoms: _119  and  _120
REMARK   54  A    between atoms: _129  and  _131
REMARK   55  A    between atoms: _131  and  _132
REMARK   56  A    between atoms: _131  and  _134
REMARK   57  A    between atoms: _134  and  _135
REMARK   58  A    between atoms: _140  and  _141
REMARK   59  A    between atoms: _143  and  _145
REMARK   60  A    between atoms: _145  and  _146
REMARK   61  A    between atoms: _145  and  _148
REMARK   62  A    between atoms: _148  and  _149
REMARK   63  A    between atoms: _152  and  _154
REMARK   64  A    between atoms: _154  and  _155
REMARK   65  A    between atoms: _154  and  _157
REMARK   66  A    between atoms: _159  and  _161
REMARK   67  A    between atoms: _161  and  _162
REMARK   68  A    between atoms: _161  and  _164
REMARK   69  A    between atoms: _164  and  _165
REMARK   70  A    between atoms: _165  and  _166
REMARK   71  A    between atoms: _166  and  _167
REMARK   72  A    between atoms: _176  and  _178
REMARK   73  A    between atoms: _178  and  _179
REMARK   74  A    between atoms: _178  and  _181
REMARK   75  A    between atoms: _181  and  _182
REMARK   76  A    between atoms: _185  and  _187
REMARK   77  A    between atoms: _187  and  _188
REMARK   78  A    between atoms: _187  and  _190
REMARK   79  A    between atoms: _190  and  _191
REMARK   80  A    between atoms: _194  and  _196
REMARK   81  A    between atoms: _196  and  _197
REMARK   82  A    between atoms: _196  and  _199
REMARK   83  A    between atoms: _202  and  _204
REMARK   84  A    between atoms: _204  and  _205
REMARK   85  A    between atoms: _204  and  _207
REMARK   86  A    between atoms: _207  and  _208
REMARK   87  A    between atoms: _213  and  _215
REMARK   88  A    between atoms: _215  and  _216
REMARK   89  A    between atoms: _215  and  _218
REMARK   90  A    between atoms: _218  and  _219
REMARK   91  A    between atoms: _219  and  _220
REMARK   92  A    between atoms: _220  and  _221
REMARK   93  A    between atoms: _230  and  _232
REMARK   94  A    between atoms: _232  and  _233
REMARK   95  A    between atoms: _232  and  _235
REMARK   96  A    between atoms: _235  and  _236
REMARK   97  A    between atoms: _239  and  _241
REMARK   98  A    between atoms: _241  and  _242
REMARK   99  A    between atoms: _244  and  _246
REMARK  100  A    between atoms: _246  and  _247
REMARK  101  A    between atoms: _246  and  _249
REMARK  102  A    between atoms: _249  and  _250
REMARK  103  A    between atoms: _253  and  _255
REMARK  104  A    between atoms: _255  and  _256
REMARK  105  A    between atoms: _255  and  _258
REMARK  106  A    between atoms: _258  and  _259
REMARK  107  A    between atoms: _259  and  _260
REMARK  108  A    between atoms: _260  and  _261
REMARK                            x       y       z     vdW  Elec       q    Type
REMARK                         _______ _______ _______ _____ _____    ______ ____
ROOT
ATOM      1  O   HOH     1       7.367  -3.140  -6.476  0.00  0.00    +0.000 OA
ENDROOT
TORSDOF 0
REMARK  Name = ../refined-set-2016/4np3/4np3_pocket.pdb
REMARK  108 active torsions:
REMARK  status: ('A' for Active; 'I' for Inactive)
REMARK    1  A    between atoms: _1  and  _3
REMARK    2  A    between atoms: _3  and  _4
REMARK    3  A    between atoms: _3  and  _6
REMARK    4  A    between atoms: _6  and  _7
REMARK    5  A    between atoms: _10  and  _12
REMARK    6  A    between atoms: _12  and  _13
REMARK    7  A    between atoms: _12  and  _15
REMARK    8  A    between atoms: _15  and  _16
REMARK    9  A    between atoms: _19  and  _21
REMARK   10  A    between atoms: _21  and  _22
REMARK   11  A    between atoms: _21  and  _24
REMARK   12  A    between atoms: _24  and  _25
REMARK   13  A    between atoms: _30  and  _32
REMARK   14  A    between atoms: _32  and  _33
REMARK   15  A    between atoms: _32  and  _35
REMARK   16  A    between atoms: _38  and  _40
REMARK   17  A    between atoms: _40  and  _41
REMARK   18  A    between atoms: _40  and  _43
REMARK   19  A    between atoms: _43  and  _44
REMARK   20  A    between atoms: _47  and  _49
REMARK   21  A    between atoms: _49  and  _50
REMARK   22  A    between atoms: _49  and  _52
REMARK   23  A    between atoms: _54  and  _56
REMARK   24  A    between atoms: _56  and  _57
REMARK   25  A    between atoms: _56  and  _59
REMARK   26  A    between atoms: _59  and  _60
REMARK   27  A    between atoms: _65  and  _67
REMARK   28  A    between atoms: _67  and  _68
REMARK   29  A    between atoms: _67  and  _70
REMARK   30  A    between atoms: _73  and  _75
REMARK   31  A    between atoms: _75  and  _76
REMARK   32  A    between atoms: _75  and  _78
REMARK   33  A    between atoms: _78  and  _79
REMARK   34  A    between atoms: _79  and  _80
REMARK   35  A    between atoms: _83  and  _85
REMARK   36  A    between atoms: _85  and  _86
REMARK   37  A    between atoms: _85  and  _88
REMARK   38  A    between atoms: _88  and  _89
REMARK   39  A    between atoms: _89  and  _90
REMARK   40  A    between atoms: _90  and  _91
REMARK   41  A    between atoms: _91  and  _92
REMARK   42  A    between atoms: _96  and  _98
REMARK   43  A    between atoms: _98  and  _99
REMARK   44  A    between atoms: _98  and  _101
REMARK   45  A    between atoms: _101  and  _102
REMARK   46  A    between atoms: _107  and  _109
REMARK   47  A    between atoms: _109  and  _110
REMARK   48  A    between atoms: _112  and  _114
REMARK   49  A    between atoms: _114  and  _115
REMARK   50  A    between atoms: _114  and  _117
REMARK   51  A    between atoms: _117  and  _118
REMARK   52  A    between atoms: _118  and  _119
REMARK   53  A    between atoms: _119  and  _120
REMARK   54  A    between atoms: _129  and  _131
REMARK   55  A    between atoms: _131  and  _132
REMARK   56  A    between atoms: _131  and  _134
REMARK   57  A    between atoms: _134  and  _135
REMARK   58  A    between atoms: _140  and  _141
REMARK   59  A    between atoms: _143  and  _145
REMARK   60  A    between atoms: _145  and  _146
REMARK   61  A    between atoms: _145  and  _148
REMARK   62  A    between atoms: _148  and  _149
REMARK   63  A    between atoms: _152  and  _154
REMARK   64  A    between atoms: _154  and  _155
REMARK   65  A    between atoms: _154  and  _157
REMARK   66  A    between atoms: _159  and  _161
REMARK   67  A    between atoms: _161  and  _162
REMARK   68  A    between atoms: _161  and  _164
REMARK   69  A    between atoms: _164  and  _165
REMARK   70  A    between atoms: _165  and  _166
REMARK   71  A    between atoms: _166  and  _167
REMARK   72  A    between atoms: _176  and  _178
REMARK   73  A    between atoms: _178  and  _179
REMARK   74  A    between atoms: _178  and  _181
REMARK   75  A    between atoms: _181  and  _182
REMARK   76  A    between atoms: _185  and  _187
REMARK   77  A    between atoms: _187  and  _188
REMARK   78  A    between atoms: _187  and  _190
REMARK   79  A    between atoms: _190  and  _191
REMARK   80  A    between atoms: _194  and  _196
REMARK   81  A    between atoms: _196  and  _197
REMARK   82  A    between atoms: _196  and  _199
REMARK   83  A    between atoms: _202  and  _204
REMARK   84  A    between atoms: _204  and  _205
REMARK   85  A    between atoms: _204  and  _207
REMARK   86  A    between atoms: _207  and  _208
REMARK   87  A    between atoms: _213  and  _215
REMARK   88  A    between atoms: _215  and  _216
REMARK   89  A    between atoms: _215  and  _218
REMARK   90  A    between atoms: _218  and  _219
REMARK   91  A    between atoms: _219  and  _220
REMARK   92  A    between atoms: _220  and  _221
REMARK   93  A    between atoms: _230  and  _232
REMARK   94  A    between atoms: _232  and  _233
REMARK   95  A    between atoms: _232  and  _235
REMARK   96  A    between atoms: _235  and  _236
REMARK   97  A    between atoms: _239  and  _241
REMARK   98  A    between atoms: _241  and  _242
REMARK   99  A    between atoms: _244  and  _246
REMARK  100  A    between atoms: _246  and  _247
REMARK  101  A    between atoms: _246  and  _249
REMARK  102  A    between atoms: _249  and  _250
REMARK  103  A    between atoms: _253  and  _255
REMARK  104  A    between atoms: _255  and  _256
REMARK  105  A    between atoms: _255  and  _258
REMARK  106  A    between atoms: _258  and  _259
REMARK  107  A    between atoms: _259  and  _260
REMARK  108  A    between atoms: _260  and  _261
REMARK                            x       y       z     vdW  Elec       q    Type
REMARK                         _______ _______ _______ _____ _____    ______ ____
ROOT
ATOM      1  O   HOH     1       3.892  -8.719  -4.331  0.00  0.00    +0.000 OA
ENDROOT
TORSDOF 0
REMARK  Name = ../refined-set-2016/4np3/4np3_pocket.pdb
REMARK  108 active torsions:
REMARK  status: ('A' for Active; 'I' for Inactive)
REMARK    1  A    between atoms: _1  and  _3
REMARK    2  A    between atoms: _3  and  _4
REMARK    3  A    between atoms: _3  and  _6
REMARK    4  A    between atoms: _6  and  _7
REMARK    5  A    between atoms: _10  and  _12
REMARK    6  A    between atoms: _12  and  _13
REMARK    7  A    between atoms: _12  and  _15
REMARK    8  A    between atoms: _15  and  _16
REMARK    9  A    between atoms: _19  and  _21
REMARK   10  A    between atoms: _21  and  _22
REMARK   11  A    between atoms: _21  and  _24
REMARK   12  A    between atoms: _24  and  _25
REMARK   13  A    between atoms: _30  and  _32
REMARK   14  A    between atoms: _32  and  _33
REMARK   15  A    between atoms: _32  and  _35
REMARK   16  A    between atoms: _38  and  _40
REMARK   17  A    between atoms: _40  and  _41
REMARK   18  A    between atoms: _40  and  _43
REMARK   19  A    between atoms: _43  and  _44
REMARK   20  A    between atoms: _47  and  _49
REMARK   21  A    between atoms: _49  and  _50
REMARK   22  A    between atoms: _49  and  _52
REMARK   23  A    between atoms: _54  and  _56
REMARK   24  A    between atoms: _56  and  _57
REMARK   25  A    between atoms: _56  and  _59
REMARK   26  A    between atoms: _59  and  _60
REMARK   27  A    between atoms: _65  and  _67
REMARK   28  A    between atoms: _67  and  _68
REMARK   29  A    between atoms: _67  and  _70
REMARK   30  A    between atoms: _73  and  _75
REMARK   31  A    between atoms: _75  and  _76
REMARK   32  A    between atoms: _75  and  _78
REMARK   33  A    between atoms: _78  and  _79
REMARK   34  A    between atoms: _79  and  _80
REMARK   35  A    between atoms: _83  and  _85
REMARK   36  A    between atoms: _85  and  _86
REMARK   37  A    between atoms: _85  and  _88
REMARK   38  A    between atoms: _88  and  _89
REMARK   39  A    between atoms: _89  and  _90
REMARK   40  A    between atoms: _90  and  _91
REMARK   41  A    between atoms: _91  and  _92
REMARK   42  A    between atoms: _96  and  _98
REMARK   43  A    between atoms: _98  and  _99
REMARK   44  A    between atoms: _98  and  _101
REMARK   45  A    between atoms: _101  and  _102
REMARK   46  A    between atoms: _107  and  _109
REMARK   47  A    between atoms: _109  and  _110
REMARK   48  A    between atoms: _112  and  _114
REMARK   49  A    between atoms: _114  and  _115
REMARK   50  A    between atoms: _114  and  _117
REMARK   51  A    between atoms: _117  and  _118
REMARK   52  A    between atoms: _118  and  _119
REMARK   53  A    between atoms: _119  and  _120
REMARK   54  A    between atoms: _129  and  _131
REMARK   55  A    between atoms: _131  and  _132
REMARK   56  A    between atoms: _131  and  _134
REMARK   57  A    between atoms: _134  and  _135
REMARK   58  A    between atoms: _140  and  _141
REMARK   59  A    between atoms: _143  and  _145
REMARK   60  A    between atoms: _145  and  _146
REMARK   61  A    between atoms: _145  and  _148
REMARK   62  A    between atoms: _148  and  _149
REMARK   63  A    between atoms: _152  and  _154
REMARK   64  A    between atoms: _154  and  _155
REMARK   65  A    between atoms: _154  and  _157
REMARK   66  A    between atoms: _159  and  _161
REMARK   67  A    between atoms: _161  and  _162
REMARK   68  A    between atoms: _161  and  _164
REMARK   69  A    between atoms: _164  and  _165
REMARK   70  A    between atoms: _165  and  _166
REMARK   71  A    between atoms: _166  and  _167
REMARK   72  A    between atoms: _176  and  _178
REMARK   73  A    between atoms: _178  and  _179
REMARK   74  A    between atoms: _178  and  _181
REMARK   75  A    between atoms: _181  and  _182
REMARK   76  A    between atoms: _185  and  _187
REMARK   77  A    between atoms: _187  and  _188
REMARK   78  A    between atoms: _187  and  _190
REMARK   79  A    between atoms: _190  and  _191
REMARK   80  A    between atoms: _194  and  _196
REMARK   81  A    between atoms: _196  and  _197
REMARK   82  A    between atoms: _196  and  _199
REMARK   83  A    between atoms: _202  and  _204
REMARK   84  A    between atoms: _204  and  _205
REMARK   85  A    between atoms: _204  and  _207
REMARK   86  A    between atoms: _207  and  _208
REMARK   87  A    between atoms: _213  and  _215
REMARK   88  A    between atoms: _215  and  _216
REMARK   89  A    between atoms: _215  and  _218
REMARK   90  A    between atoms: _218  and  _219
REMARK   91  A    between atoms: _219  and  _220
REMARK   92  A    between atoms: _220  and  _221
REMARK   93  A    between atoms: _230  and  _232
REMARK   94  A    between atoms: _232  and  _233
REMARK   95  A    between atoms: _232  and  _235
REMARK   96  A    between atoms: _235  and  _236
REMARK   97  A    between atoms: _239  and  _241
REMARK   98  A    between atoms: _241  and  _242
REMARK   99  A    between atoms: _244  and  _246
REMARK  100  A    between atoms: _246  and  _247
REMARK  101  A    between atoms: _246  and  _249
REMARK  102  A    between atoms: _249  and  _250
REMARK  103  A    between atoms: _253  and  _255
REMARK  104  A    between atoms: _255  and  _256
REMARK  105  A    between atoms: _255  and  _258
REMARK  106  A    between atoms: _258  and  _259
REMARK  107  A    between atoms: _259  and  _260
REMARK  108  A    between atoms: _260  and  _261
REMARK                            x       y       z     vdW  Elec       q    Type
REMARK                         _______ _______ _______ _____ _____    ______ ____
ROOT
ATOM      1  O   HOH     1       3.640  -8.967  -1.715  0.00  0.00    +0.000 OA
ENDROOT
TORSDOF 0
REMARK  Name = ../refined-set-2016/4np3/4np3_pocket.pdb
REMARK  108 active torsions:
REMARK  status: ('A' for Active; 'I' for Inactive)
REMARK    1  A    between atoms: _1  and  _3
REMARK    2  A    between atoms: _3  and  _4
REMARK    3  A    between atoms: _3  and  _6
REMARK    4  A    between atoms: _6  and  _7
REMARK    5  A    between atoms: _10  and  _12
REMARK    6  A    between atoms: _12  and  _13
REMARK    7  A    between atoms: _12  and  _15
REMARK    8  A    between atoms: _15  and  _16
REMARK    9  A    between atoms: _19  and  _21
REMARK   10  A    between atoms: _21  and  _22
REMARK   11  A    between atoms: _21  and  _24
REMARK   12  A    between atoms: _24  and  _25
REMARK   13  A    between atoms: _30  and  _32
REMARK   14  A    between atoms: _32  and  _33
REMARK   15  A    between atoms: _32  and  _35
REMARK   16  A    between atoms: _38  and  _40
REMARK   17  A    between atoms: _40  and  _41
REMARK   18  A    between atoms: _40  and  _43
REMARK   19  A    between atoms: _43  and  _44
REMARK   20  A    between atoms: _47  and  _49
REMARK   21  A    between atoms: _49  and  _50
REMARK   22  A    between atoms: _49  and  _52
REMARK   23  A    between atoms: _54  and  _56
REMARK   24  A    between atoms: _56  and  _57
REMARK   25  A    between atoms: _56  and  _59
REMARK   26  A    between atoms: _59  and  _60
REMARK   27  A    between atoms: _65  and  _67
REMARK   28  A    between atoms: _67  and  _68
REMARK   29  A    between atoms: _67  and  _70
REMARK   30  A    between atoms: _73  and  _75
REMARK   31  A    between atoms: _75  and  _76
REMARK   32  A    between atoms: _75  and  _78
REMARK   33  A    between atoms: _78  and  _79
REMARK   34  A    between atoms: _79  and  _80
REMARK   35  A    between atoms: _83  and  _85
REMARK   36  A    between atoms: _85  and  _86
REMARK   37  A    between atoms: _85  and  _88
REMARK   38  A    between atoms: _88  and  _89
REMARK   39  A    between atoms: _89  and  _90
REMARK   40  A    between atoms: _90  and  _91
REMARK   41  A    between atoms: _91  and  _92
REMARK   42  A    between atoms: _96  and  _98
REMARK   43  A    between atoms: _98  and  _99
REMARK   44  A    between atoms: _98  and  _101
REMARK   45  A    between atoms: _101  and  _102
REMARK   46  A    between atoms: _107  and  _109
REMARK   47  A    between atoms: _109  and  _110
REMARK   48  A    between atoms: _112  and  _114
REMARK   49  A    between atoms: _114  and  _115
REMARK   50  A    between atoms: _114  and  _117
REMARK   51  A    between atoms: _117  and  _118
REMARK   52  A    between atoms: _118  and  _119
REMARK   53  A    between atoms: _119  and  _120
REMARK   54  A    between atoms: _129  and  _131
REMARK   55  A    between atoms: _131  and  _132
REMARK   56  A    between atoms: _131  and  _134
REMARK   57  A    between atoms: _134  and  _135
REMARK   58  A    between atoms: _140  and  _141
REMARK   59  A    between atoms: _143  and  _145
REMARK   60  A    between atoms: _145  and  _146
REMARK   61  A    between atoms: _145  and  _148
REMARK   62  A    between atoms: _148  and  _149
REMARK   63  A    between atoms: _152  and  _154
REMARK   64  A    between atoms: _154  and  _155
REMARK   65  A    between atoms: _154  and  _157
REMARK   66  A    between atoms: _159  and  _161
REMARK   67  A    between atoms: _161  and  _162
REMARK   68  A    between atoms: _161  and  _164
REMARK   69  A    between atoms: _164  and  _165
REMARK   70  A    between atoms: _165  and  _166
REMARK   71  A    between atoms: _166  and  _167
REMARK   72  A    between atoms: _176  and  _178
REMARK   73  A    between atoms: _178  and  _179
REMARK   74  A    between atoms: _178  and  _181
REMARK   75  A    between atoms: _181  and  _182
REMARK   76  A    between atoms: _185  and  _187
REMARK   77  A    between atoms: _187  and  _188
REMARK   78  A    between atoms: _187  and  _190
REMARK   79  A    between atoms: _190  and  _191
REMARK   80  A    between atoms: _194  and  _196
REMARK   81  A    between atoms: _196  and  _197
REMARK   82  A    between atoms: _196  and  _199
REMARK   83  A    between atoms: _202  and  _204
REMARK   84  A    between atoms: _204  and  _205
REMARK   85  A    between atoms: _204  and  _207
REMARK   86  A    between atoms: _207  and  _208
REMARK   87  A    between atoms: _213  and  _215
REMARK   88  A    between atoms: _215  and  _216
REMARK   89  A    between atoms: _215  and  _218
REMARK   90  A    between atoms: _218  and  _219
REMARK   91  A    between atoms: _219  and  _220
REMARK   92  A    between atoms: _220  and  _221
REMARK   93  A    between atoms: _230  and  _232
REMARK   94  A    between atoms: _232  and  _233
REMARK   95  A    between atoms: _232  and  _235
REMARK   96  A    between atoms: _235  and  _236
REMARK   97  A    between atoms: _239  and  _241
REMARK   98  A    between atoms: _241  and  _242
REMARK   99  A    between atoms: _244  and  _246
REMARK  100  A    between atoms: _246  and  _247
REMARK  101  A    between atoms: _246  and  _249
REMARK  102  A    between atoms: _249  and  _250
REMARK  103  A    between atoms: _253  and  _255
REMARK  104  A    between atoms: _255  and  _256
REMARK  105  A    between atoms: _255  and  _258
REMARK  106  A    between atoms: _258  and  _259
REMARK  107  A    between atoms: _259  and  _260
REMARK  108  A    between atoms: _260  and  _261
REMARK                            x       y       z     vdW  Elec       q    Type
REMARK                         _______ _______ _______ _____ _____    ______ ____
ROOT
ATOM      1  O   HOH     1       6.402  -8.414  -0.709  0.00  0.00    +0.000 OA
ENDROOT
TORSDOF 0
REMARK  Name = ../refined-set-2016/4np3/4np3_pocket.pdb
REMARK  108 active torsions:
REMARK  status: ('A' for Active; 'I' for Inactive)
REMARK    1  A    between atoms: _1  and  _3
REMARK    2  A    between atoms: _3  and  _4
REMARK    3  A    between atoms: _3  and  _6
REMARK    4  A    between atoms: _6  and  _7
REMARK    5  A    between atoms: _10  and  _12
REMARK    6  A    between atoms: _12  and  _13
REMARK    7  A    between atoms: _12  and  _15
REMARK    8  A    between atoms: _15  and  _16
REMARK    9  A    between atoms: _19  and  _21
REMARK   10  A    between atoms: _21  and  _22
REMARK   11  A    between atoms: _21  and  _24
REMARK   12  A    between atoms: _24  and  _25
REMARK   13  A    between atoms: _30  and  _32
REMARK   14  A    between atoms: _32  and  _33
REMARK   15  A    between atoms: _32  and  _35
REMARK   16  A    between atoms: _38  and  _40
REMARK   17  A    between atoms: _40  and  _41
REMARK   18  A    between atoms: _40  and  _43
REMARK   19  A    between atoms: _43  and  _44
REMARK   20  A    between atoms: _47  and  _49
REMARK   21  A    between atoms: _49  and  _50
REMARK   22  A    between atoms: _49  and  _52
REMARK   23  A    between atoms: _54  and  _56
REMARK   24  A    between atoms: _56  and  _57
REMARK   25  A    between atoms: _56  and  _59
REMARK   26  A    between atoms: _59  and  _60
REMARK   27  A    between atoms: _65  and  _67
REMARK   28  A    between atoms: _67  and  _68
REMARK   29  A    between atoms: _67  and  _70
REMARK   30  A    between atoms: _73  and  _75
REMARK   31  A    between atoms: _75  and  _76
REMARK   32  A    between atoms: _75  and  _78
REMARK   33  A    between atoms: _78  and  _79
REMARK   34  A    between atoms: _79  and  _80
REMARK   35  A    between atoms: _83  and  _85
REMARK   36  A    between atoms: _85  and  _86
REMARK   37  A    between atoms: _85  and  _88
REMARK   38  A    between atoms: _88  and  _89
REMARK   39  A    between atoms: _89  and  _90
REMARK   40  A    between atoms: _90  and  _91
REMARK   41  A    between atoms: _91  and  _92
REMARK   42  A    between atoms: _96  and  _98
REMARK   43  A    between atoms: _98  and  _99
REMARK   44  A    between atoms: _98  and  _101
REMARK   45  A    between atoms: _101  and  _102
REMARK   46  A    between atoms: _107  and  _109
REMARK   47  A    between atoms: _109  and  _110
REMARK   48  A    between atoms: _112  and  _114
REMARK   49  A    between atoms: _114  and  _115
REMARK   50  A    between atoms: _114  and  _117
REMARK   51  A    between atoms: _117  and  _118
REMARK   52  A    between atoms: _118  and  _119
REMARK   53  A    between atoms: _119  and  _120
REMARK   54  A    between atoms: _129  and  _131
REMARK   55  A    between atoms: _131  and  _132
REMARK   56  A    between atoms: _131  and  _134
REMARK   57  A    between atoms: _134  and  _135
REMARK   58  A    between atoms: _140  and  _141
REMARK   59  A    between atoms: _143  and  _145
REMARK   60  A    between atoms: _145  and  _146
REMARK   61  A    between atoms: _145  and  _148
REMARK   62  A    between atoms: _148  and  _149
REMARK   63  A    between atoms: _152  and  _154
REMARK   64  A    between atoms: _154  and  _155
REMARK   65  A    between atoms: _154  and  _157
REMARK   66  A    between atoms: _159  and  _161
REMARK   67  A    between atoms: _161  and  _162
REMARK   68  A    between atoms: _161  and  _164
REMARK   69  A    between atoms: _164  and  _165
REMARK   70  A    between atoms: _165  and  _166
REMARK   71  A    between atoms: _166  and  _167
REMARK   72  A    between atoms: _176  and  _178
REMARK   73  A    between atoms: _178  and  _179
REMARK   74  A    between atoms: _178  and  _181
REMARK   75  A    between atoms: _181  and  _182
REMARK   76  A    between atoms: _185  and  _187
REMARK   77  A    between atoms: _187  and  _188
REMARK   78  A    between atoms: _187  and  _190
REMARK   79  A    between atoms: _190  and  _191
REMARK   80  A    between atoms: _194  and  _196
REMARK   81  A    between atoms: _196  and  _197
REMARK   82  A    between atoms: _196  and  _199
REMARK   83  A    between atoms: _202  and  _204
REMARK   84  A    between atoms: _204  and  _205
REMARK   85  A    between atoms: _204  and  _207
REMARK   86  A    between atoms: _207  and  _208
REMARK   87  A    between atoms: _213  and  _215
REMARK   88  A    between atoms: _215  and  _216
REMARK   89  A    between atoms: _215  and  _218
REMARK   90  A    between atoms: _218  and  _219
REMARK   91  A    between atoms: _219  and  _220
REMARK   92  A    between atoms: _220  and  _221
REMARK   93  A    between atoms: _230  and  _232
REMARK   94  A    between atoms: _232  and  _233
REMARK   95  A    between atoms: _232  and  _235
REMARK   96  A    between atoms: _235  and  _236
REMARK   97  A    between atoms: _239  and  _241
REMARK   98  A    between atoms: _241  and  _242
REMARK   99  A    between atoms: _244  and  _246
REMARK  100  A    between atoms: _246  and  _247
REMARK  101  A    between atoms: _246  and  _249
REMARK  102  A    between atoms: _249  and  _250
REMARK  103  A    between atoms: _253  and  _255
REMARK  104  A    between atoms: _255  and  _256
REMARK  105  A    between atoms: _255  and  _258
REMARK  106  A    between atoms: _258  and  _259
REMARK  107  A    between atoms: _259  and  _260
REMARK  108  A    between atoms: _260  and  _261
REMARK                            x       y       z     vdW  Elec       q    Type
REMARK                         _______ _______ _______ _____ _____    ______ ____
ROOT
ATOM      1  O   HOH     1      13.927  -4.488   8.748  0.00  0.00    +0.000 OA
ENDROOT
TORSDOF 0
REMARK  Name = ../refined-set-2016/4np3/4np3_pocket.pdb
REMARK  108 active torsions:
REMARK  status: ('A' for Active; 'I' for Inactive)
REMARK    1  A    between atoms: _1  and  _3
REMARK    2  A    between atoms: _3  and  _4
REMARK    3  A    between atoms: _3  and  _6
REMARK    4  A    between atoms: _6  and  _7
REMARK    5  A    between atoms: _10  and  _12
REMARK    6  A    between atoms: _12  and  _13
REMARK    7  A    between atoms: _12  and  _15
REMARK    8  A    between atoms: _15  and  _16
REMARK    9  A    between atoms: _19  and  _21
REMARK   10  A    between atoms: _21  and  _22
REMARK   11  A    between atoms: _21  and  _24
REMARK   12  A    between atoms: _24  and  _25
REMARK   13  A    between atoms: _30  and  _32
REMARK   14  A    between atoms: _32  and  _33
REMARK   15  A    between atoms: _32  and  _35
REMARK   16  A    between atoms: _38  and  _40
REMARK   17  A    between atoms: _40  and  _41
REMARK   18  A    between atoms: _40  and  _43
REMARK   19  A    between atoms: _43  and  _44
REMARK   20  A    between atoms: _47  and  _49
REMARK   21  A    between atoms: _49  and  _50
REMARK   22  A    between atoms: _49  and  _52
REMARK   23  A    between atoms: _54  and  _56
REMARK   24  A    between atoms: _56  and  _57
REMARK   25  A    between atoms: _56  and  _59
REMARK   26  A    between atoms: _59  and  _60
REMARK   27  A    between atoms: _65  and  _67
REMARK   28  A    between atoms: _67  and  _68
REMARK   29  A    between atoms: _67  and  _70
REMARK   30  A    between atoms: _73  and  _75
REMARK   31  A    between atoms: _75  and  _76
REMARK   32  A    between atoms: _75  and  _78
REMARK   33  A    between atoms: _78  and  _79
REMARK   34  A    between atoms: _79  and  _80
REMARK   35  A    between atoms: _83  and  _85
REMARK   36  A    between atoms: _85  and  _86
REMARK   37  A    between atoms: _85  and  _88
REMARK   38  A    between atoms: _88  and  _89
REMARK   39  A    between atoms: _89  and  _90
REMARK   40  A    between atoms: _90  and  _91
REMARK   41  A    between atoms: _91  and  _92
REMARK   42  A    between atoms: _96  and  _98
REMARK   43  A    between atoms: _98  and  _99
REMARK   44  A    between atoms: _98  and  _101
REMARK   45  A    between atoms: _101  and  _102
REMARK   46  A    between atoms: _107  and  _109
REMARK   47  A    between atoms: _109  and  _110
REMARK   48  A    between atoms: _112  and  _114
REMARK   49  A    between atoms: _114  and  _115
REMARK   50  A    between atoms: _114  and  _117
REMARK   51  A    between atoms: _117  and  _118
REMARK   52  A    between atoms: _118  and  _119
REMARK   53  A    between atoms: _119  and  _120
REMARK   54  A    between atoms: _129  and  _131
REMARK   55  A    between atoms: _131  and  _132
REMARK   56  A    between atoms: _131  and  _134
REMARK   57  A    between atoms: _134  and  _135
REMARK   58  A    between atoms: _140  and  _141
REMARK   59  A    between atoms: _143  and  _145
REMARK   60  A    between atoms: _145  and  _146
REMARK   61  A    between atoms: _145  and  _148
REMARK   62  A    between atoms: _148  and  _149
REMARK   63  A    between atoms: _152  and  _154
REMARK   64  A    between atoms: _154  and  _155
REMARK   65  A    between atoms: _154  and  _157
REMARK   66  A    between atoms: _159  and  _161
REMARK   67  A    between atoms: _161  and  _162
REMARK   68  A    between atoms: _161  and  _164
REMARK   69  A    between atoms: _164  and  _165
REMARK   70  A    between atoms: _165  and  _166
REMARK   71  A    between atoms: _166  and  _167
REMARK   72  A    between atoms: _176  and  _178
REMARK   73  A    between atoms: _178  and  _179
REMARK   74  A    between atoms: _178  and  _181
REMARK   75  A    between atoms: _181  and  _182
REMARK   76  A    between atoms: _185  and  _187
REMARK   77  A    between atoms: _187  and  _188
REMARK   78  A    between atoms: _187  and  _190
REMARK   79  A    between atoms: _190  and  _191
REMARK   80  A    between atoms: _194  and  _196
REMARK   81  A    between atoms: _196  and  _197
REMARK   82  A    between atoms: _196  and  _199
REMARK   83  A    between atoms: _202  and  _204
REMARK   84  A    between atoms: _204  and  _205
REMARK   85  A    between atoms: _204  and  _207
REMARK   86  A    between atoms: _207  and  _208
REMARK   87  A    between atoms: _213  and  _215
REMARK   88  A    between atoms: _215  and  _216
REMARK   89  A    between atoms: _215  and  _218
REMARK   90  A    between atoms: _218  and  _219
REMARK   91  A    between atoms: _219  and  _220
REMARK   92  A    between atoms: _220  and  _221
REMARK   93  A    between atoms: _230  and  _232
REMARK   94  A    between atoms: _232  and  _233
REMARK   95  A    between atoms: _232  and  _235
REMARK   96  A    between atoms: _235  and  _236
REMARK   97  A    between atoms: _239  and  _241
REMARK   98  A    between atoms: _241  and  _242
REMARK   99  A    between atoms: _244  and  _246
REMARK  100  A    between atoms: _246  and  _247
REMARK  101  A    between atoms: _246  and  _249
REMARK  102  A    between atoms: _249  and  _250
REMARK  103  A    between atoms: _253  and  _255
REMARK  104  A    between atoms: _255  and  _256
REMARK  105  A    between atoms: _255  and  _258
REMARK  106  A    between atoms: _258  and  _259
REMARK  107  A    between atoms: _259  and  _260
REMARK  108  A    between atoms: _260  and  _261
REMARK                            x       y       z     vdW  Elec       q    Type
REMARK                         _______ _______ _______ _____ _____    ______ ____
ROOT
ATOM      1  O   HOH     1       7.081 -10.875   0.448  0.00  0.00    +0.000 OA
ENDROOT
TORSDOF 0
REMARK  Name = ../refined-set-2016/4np3/4np3_pocket.pdb
REMARK  108 active torsions:
REMARK  status: ('A' for Active; 'I' for Inactive)
REMARK    1  A    between atoms: _1  and  _3
REMARK    2  A    between atoms: _3  and  _4
REMARK    3  A    between atoms: _3  and  _6
REMARK    4  A    between atoms: _6  and  _7
REMARK    5  A    between atoms: _10  and  _12
REMARK    6  A    between atoms: _12  and  _13
REMARK    7  A    between atoms: _12  and  _15
REMARK    8  A    between atoms: _15  and  _16
REMARK    9  A    between atoms: _19  and  _21
REMARK   10  A    between atoms: _21  and  _22
REMARK   11  A    between atoms: _21  and  _24
REMARK   12  A    between atoms: _24  and  _25
REMARK   13  A    between atoms: _30  and  _32
REMARK   14  A    between atoms: _32  and  _33
REMARK   15  A    between atoms: _32  and  _35
REMARK   16  A    between atoms: _38  and  _40
REMARK   17  A    between atoms: _40  and  _41
REMARK   18  A    between atoms: _40  and  _43
REMARK   19  A    between atoms: _43  and  _44
REMARK   20  A    between atoms: _47  and  _49
REMARK   21  A    between atoms: _49  and  _50
REMARK   22  A    between atoms: _49  and  _52
REMARK   23  A    between atoms: _54  and  _56
REMARK   24  A    between atoms: _56  and  _57
REMARK   25  A    between atoms: _56  and  _59
REMARK   26  A    between atoms: _59  and  _60
REMARK   27  A    between atoms: _65  and  _67
REMARK   28  A    between atoms: _67  and  _68
REMARK   29  A    between atoms: _67  and  _70
REMARK   30  A    between atoms: _73  and  _75
REMARK   31  A    between atoms: _75  and  _76
REMARK   32  A    between atoms: _75  and  _78
REMARK   33  A    between atoms: _78  and  _79
REMARK   34  A    between atoms: _79  and  _80
REMARK   35  A    between atoms: _83  and  _85
REMARK   36  A    between atoms: _85  and  _86
REMARK   37  A    between atoms: _85  and  _88
REMARK   38  A    between atoms: _88  and  _89
REMARK   39  A    between atoms: _89  and  _90
REMARK   40  A    between atoms: _90  and  _91
REMARK   41  A    between atoms: _91  and  _92
REMARK   42  A    between atoms: _96  and  _98
REMARK   43  A    between atoms: _98  and  _99
REMARK   44  A    between atoms: _98  and  _101
REMARK   45  A    between atoms: _101  and  _102
REMARK   46  A    between atoms: _107  and  _109
REMARK   47  A    between atoms: _109  and  _110
REMARK   48  A    between atoms: _112  and  _114
REMARK   49  A    between atoms: _114  and  _115
REMARK   50  A    between atoms: _114  and  _117
REMARK   51  A    between atoms: _117  and  _118
REMARK   52  A    between atoms: _118  and  _119
REMARK   53  A    between atoms: _119  and  _120
REMARK   54  A    between atoms: _129  and  _131
REMARK   55  A    between atoms: _131  and  _132
REMARK   56  A    between atoms: _131  and  _134
REMARK   57  A    between atoms: _134  and  _135
REMARK   58  A    between atoms: _140  and  _141
REMARK   59  A    between atoms: _143  and  _145
REMARK   60  A    between atoms: _145  and  _146
REMARK   61  A    between atoms: _145  and  _148
REMARK   62  A    between atoms: _148  and  _149
REMARK   63  A    between atoms: _152  and  _154
REMARK   64  A    between atoms: _154  and  _155
REMARK   65  A    between atoms: _154  and  _157
REMARK   66  A    between atoms: _159  and  _161
REMARK   67  A    between atoms: _161  and  _162
REMARK   68  A    between atoms: _161  and  _164
REMARK   69  A    between atoms: _164  and  _165
REMARK   70  A    between atoms: _165  and  _166
REMARK   71  A    between atoms: _166  and  _167
REMARK   72  A    between atoms: _176  and  _178
REMARK   73  A    between atoms: _178  and  _179
REMARK   74  A    between atoms: _178  and  _181
REMARK   75  A    between atoms: _181  and  _182
REMARK   76  A    between atoms: _185  and  _187
REMARK   77  A    between atoms: _187  and  _188
REMARK   78  A    between atoms: _187  and  _190
REMARK   79  A    between atoms: _190  and  _191
REMARK   80  A    between atoms: _194  and  _196
REMARK   81  A    between atoms: _196  and  _197
REMARK   82  A    between atoms: _196  and  _199
REMARK   83  A    between atoms: _202  and  _204
REMARK   84  A    between atoms: _204  and  _205
REMARK   85  A    between atoms: _204  and  _207
REMARK   86  A    between atoms: _207  and  _208
REMARK   87  A    between atoms: _213  and  _215
REMARK   88  A    between atoms: _215  and  _216
REMARK   89  A    between atoms: _215  and  _218
REMARK   90  A    between atoms: _218  and  _219
REMARK   91  A    between atoms: _219  and  _220
REMARK   92  A    between atoms: _220  and  _221
REMARK   93  A    between atoms: _230  and  _232
REMARK   94  A    between atoms: _232  and  _233
REMARK   95  A    between atoms: _232  and  _235
REMARK   96  A    between atoms: _235  and  _236
REMARK   97  A    between atoms: _239  and  _241
REMARK   98  A    between atoms: _241  and  _242
REMARK   99  A    between atoms: _244  and  _246
REMARK  100  A    between atoms: _246  and  _247
REMARK  101  A    between atoms: _246  and  _249
REMARK  102  A    between atoms: _249  and  _250
REMARK  103  A    between atoms: _253  and  _255
REMARK  104  A    between atoms: _255  and  _256
REMARK  105  A    between atoms: _255  and  _258
REMARK  106  A    between atoms: _258  and  _259
REMARK  107  A    between atoms: _259  and  _260
REMARK  108  A    between atoms: _260  and  _261
REMARK                            x       y       z     vdW  Elec       q    Type
REMARK                         _______ _______ _______ _____ _____    ______ ____
ROOT
ATOM      1  O   HOH     1       5.506  -2.296  -7.972  0.00  0.00    +0.000 OA
ENDROOT
TORSDOF 0
REMARK  Name = ../refined-set-2016/4np3/4np3_pocket.pdb
REMARK  108 active torsions:
REMARK  status: ('A' for Active; 'I' for Inactive)
REMARK    1  A    between atoms: _1  and  _3
REMARK    2  A    between atoms: _3  and  _4
REMARK    3  A    between atoms: _3  and  _6
REMARK    4  A    between atoms: _6  and  _7
REMARK    5  A    between atoms: _10  and  _12
REMARK    6  A    between atoms: _12  and  _13
REMARK    7  A    between atoms: _12  and  _15
REMARK    8  A    between atoms: _15  and  _16
REMARK    9  A    between atoms: _19  and  _21
REMARK   10  A    between atoms: _21  and  _22
REMARK   11  A    between atoms: _21  and  _24
REMARK   12  A    between atoms: _24  and  _25
REMARK   13  A    between atoms: _30  and  _32
REMARK   14  A    between atoms: _32  and  _33
REMARK   15  A    between atoms: _32  and  _35
REMARK   16  A    between atoms: _38  and  _40
REMARK   17  A    between atoms: _40  and  _41
REMARK   18  A    between atoms: _40  and  _43
REMARK   19  A    between atoms: _43  and  _44
REMARK   20  A    between atoms: _47  and  _49
REMARK   21  A    between atoms: _49  and  _50
REMARK   22  A    between atoms: _49  and  _52
REMARK   23  A    between atoms: _54  and  _56
REMARK   24  A    between atoms: _56  and  _57
REMARK   25  A    between atoms: _56  and  _59
REMARK   26  A    between atoms: _59  and  _60
REMARK   27  A    between atoms: _65  and  _67
REMARK   28  A    between atoms: _67  and  _68
REMARK   29  A    between atoms: _67  and  _70
REMARK   30  A    between atoms: _73  and  _75
REMARK   31  A    between atoms: _75  and  _76
REMARK   32  A    between atoms: _75  and  _78
REMARK   33  A    between atoms: _78  and  _79
REMARK   34  A    between atoms: _79  and  _80
REMARK   35  A    between atoms: _83  and  _85
REMARK   36  A    between atoms: _85  and  _86
REMARK   37  A    between atoms: _85  and  _88
REMARK   38  A    between atoms: _88  and  _89
REMARK   39  A    between atoms: _89  and  _90
REMARK   40  A    between atoms: _90  and  _91
REMARK   41  A    between atoms: _91  and  _92
REMARK   42  A    between atoms: _96  and  _98
REMARK   43  A    between atoms: _98  and  _99
REMARK   44  A    between atoms: _98  and  _101
REMARK   45  A    between atoms: _101  and  _102
REMARK   46  A    between atoms: _107  and  _109
REMARK   47  A    between atoms: _109  and  _110
REMARK   48  A    between atoms: _112  and  _114
REMARK   49  A    between atoms: _114  and  _115
REMARK   50  A    between atoms: _114  and  _117
REMARK   51  A    between atoms: _117  and  _118
REMARK   52  A    between atoms: _118  and  _119
REMARK   53  A    between atoms: _119  and  _120
REMARK   54  A    between atoms: _129  and  _131
REMARK   55  A    between atoms: _131  and  _132
REMARK   56  A    between atoms: _131  and  _134
REMARK   57  A    between atoms: _134  and  _135
REMARK   58  A    between atoms: _140  and  _141
REMARK   59  A    between atoms: _143  and  _145
REMARK   60  A    between atoms: _145  and  _146
REMARK   61  A    between atoms: _145  and  _148
REMARK   62  A    between atoms: _148  and  _149
REMARK   63  A    between atoms: _152  and  _154
REMARK   64  A    between atoms: _154  and  _155
REMARK   65  A    between atoms: _154  and  _157
REMARK   66  A    between atoms: _159  and  _161
REMARK   67  A    between atoms: _161  and  _162
REMARK   68  A    between atoms: _161  and  _164
REMARK   69  A    between atoms: _164  and  _165
REMARK   70  A    between atoms: _165  and  _166
REMARK   71  A    between atoms: _166  and  _167
REMARK   72  A    between atoms: _176  and  _178
REMARK   73  A    between atoms: _178  and  _179
REMARK   74  A    between atoms: _178  and  _181
REMARK   75  A    between atoms: _181  and  _182
REMARK   76  A    between atoms: _185  and  _187
REMARK   77  A    between atoms: _187  and  _188
REMARK   78  A    between atoms: _187  and  _190
REMARK   79  A    between atoms: _190  and  _191
REMARK   80  A    between atoms: _194  and  _196
REMARK   81  A    between atoms: _196  and  _197
REMARK   82  A    between atoms: _196  and  _199
REMARK   83  A    between atoms: _202  and  _204
REMARK   84  A    between atoms: _204  and  _205
REMARK   85  A    between atoms: _204  and  _207
REMARK   86  A    between atoms: _207  and  _208
REMARK   87  A    between atoms: _213  and  _215
REMARK   88  A    between atoms: _215  and  _216
REMARK   89  A    between atoms: _215  and  _218
REMARK   90  A    between atoms: _218  and  _219
REMARK   91  A    between atoms: _219  and  _220
REMARK   92  A    between atoms: _220  and  _221
REMARK   93  A    between atoms: _230  and  _232
REMARK   94  A    between atoms: _232  and  _233
REMARK   95  A    between atoms: _232  and  _235
REMARK   96  A    between atoms: _235  and  _236
REMARK   97  A    between atoms: _239  and  _241
REMARK   98  A    between atoms: _241  and  _242
REMARK   99  A    between atoms: _244  and  _246
REMARK  100  A    between atoms: _246  and  _247
REMARK  101  A    between atoms: _246  and  _249
REMARK  102  A    between atoms: _249  and  _250
REMARK  103  A    between atoms: _253  and  _255
REMARK  104  A    between atoms: _255  and  _256
REMARK  105  A    between atoms: _255  and  _258
REMARK  106  A    between atoms: _258  and  _259
REMARK  107  A    between atoms: _259  and  _260
REMARK  108  A    between atoms: _260  and  _261
REMARK                            x       y       z     vdW  Elec       q    Type
REMARK                         _______ _______ _______ _____ _____    ______ ____
ROOT
ATOM      1  O   HOH     1       8.429 -10.500  -5.057  0.00  0.00    +0.000 OA
ENDROOT
TORSDOF 0
REMARK  Name = ../refined-set-2016/4np3/4np3_pocket.pdb
REMARK  108 active torsions:
REMARK  status: ('A' for Active; 'I' for Inactive)
REMARK    1  A    between atoms: _1  and  _3
REMARK    2  A    between atoms: _3  and  _4
REMARK    3  A    between atoms: _3  and  _6
REMARK    4  A    between atoms: _6  and  _7
REMARK    5  A    between atoms: _10  and  _12
REMARK    6  A    between atoms: _12  and  _13
REMARK    7  A    between atoms: _12  and  _15
REMARK    8  A    between atoms: _15  and  _16
REMARK    9  A    between atoms: _19  and  _21
REMARK   10  A    between atoms: _21  and  _22
REMARK   11  A    between atoms: _21  and  _24
REMARK   12  A    between atoms: _24  and  _25
REMARK   13  A    between atoms: _30  and  _32
REMARK   14  A    between atoms: _32  and  _33
REMARK   15  A    between atoms: _32  and  _35
REMARK   16  A    between atoms: _38  and  _40
REMARK   17  A    between atoms: _40  and  _41
REMARK   18  A    between atoms: _40  and  _43
REMARK   19  A    between atoms: _43  and  _44
REMARK   20  A    between atoms: _47  and  _49
REMARK   21  A    between atoms: _49  and  _50
REMARK   22  A    between atoms: _49  and  _52
REMARK   23  A    between atoms: _54  and  _56
REMARK   24  A    between atoms: _56  and  _57
REMARK   25  A    between atoms: _56  and  _59
REMARK   26  A    between atoms: _59  and  _60
REMARK   27  A    between atoms: _65  and  _67
REMARK   28  A    between atoms: _67  and  _68
REMARK   29  A    between atoms: _67  and  _70
REMARK   30  A    between atoms: _73  and  _75
REMARK   31  A    between atoms: _75  and  _76
REMARK   32  A    between atoms: _75  and  _78
REMARK   33  A    between atoms: _78  and  _79
REMARK   34  A    between atoms: _79  and  _80
REMARK   35  A    between atoms: _83  and  _85
REMARK   36  A    between atoms: _85  and  _86
REMARK   37  A    between atoms: _85  and  _88
REMARK   38  A    between atoms: _88  and  _89
REMARK   39  A    between atoms: _89  and  _90
REMARK   40  A    between atoms: _90  and  _91
REMARK   41  A    between atoms: _91  and  _92
REMARK   42  A    between atoms: _96  and  _98
REMARK   43  A    between atoms: _98  and  _99
REMARK   44  A    between atoms: _98  and  _101
REMARK   45  A    between atoms: _101  and  _102
REMARK   46  A    between atoms: _107  and  _109
REMARK   47  A    between atoms: _109  and  _110
REMARK   48  A    between atoms: _112  and  _114
REMARK   49  A    between atoms: _114  and  _115
REMARK   50  A    between atoms: _114  and  _117
REMARK   51  A    between atoms: _117  and  _118
REMARK   52  A    between atoms: _118  and  _119
REMARK   53  A    between atoms: _119  and  _120
REMARK   54  A    between atoms: _129  and  _131
REMARK   55  A    between atoms: _131  and  _132
REMARK   56  A    between atoms: _131  and  _134
REMARK   57  A    between atoms: _134  and  _135
REMARK   58  A    between atoms: _140  and  _141
REMARK   59  A    between atoms: _143  and  _145
REMARK   60  A    between atoms: _145  and  _146
REMARK   61  A    between atoms: _145  and  _148
REMARK   62  A    between atoms: _148  and  _149
REMARK   63  A    between atoms: _152  and  _154
REMARK   64  A    between atoms: _154  and  _155
REMARK   65  A    between atoms: _154  and  _157
REMARK   66  A    between atoms: _159  and  _161
REMARK   67  A    between atoms: _161  and  _162
REMARK   68  A    between atoms: _161  and  _164
REMARK   69  A    between atoms: _164  and  _165
REMARK   70  A    between atoms: _165  and  _166
REMARK   71  A    between atoms: _166  and  _167
REMARK   72  A    between atoms: _176  and  _178
REMARK   73  A    between atoms: _178  and  _179
REMARK   74  A    between atoms: _178  and  _181
REMARK   75  A    between atoms: _181  and  _182
REMARK   76  A    between atoms: _185  and  _187
REMARK   77  A    between atoms: _187  and  _188
REMARK   78  A    between atoms: _187  and  _190
REMARK   79  A    between atoms: _190  and  _191
REMARK   80  A    between atoms: _194  and  _196
REMARK   81  A    between atoms: _196  and  _197
REMARK   82  A    between atoms: _196  and  _199
REMARK   83  A    between atoms: _202  and  _204
REMARK   84  A    between atoms: _204  and  _205
REMARK   85  A    between atoms: _204  and  _207
REMARK   86  A    between atoms: _207  and  _208
REMARK   87  A    between atoms: _213  and  _215
REMARK   88  A    between atoms: _215  and  _216
REMARK   89  A    between atoms: _215  and  _218
REMARK   90  A    between atoms: _218  and  _219
REMARK   91  A    between atoms: _219  and  _220
REMARK   92  A    between atoms: _220  and  _221
REMARK   93  A    between atoms: _230  and  _232
REMARK   94  A    between atoms: _232  and  _233
REMARK   95  A    between atoms: _232  and  _235
REMARK   96  A    between atoms: _235  and  _236
REMARK   97  A    between atoms: _239  and  _241
REMARK   98  A    between atoms: _241  and  _242
REMARK   99  A    between atoms: _244  and  _246
REMARK  100  A    between atoms: _246  and  _247
REMARK  101  A    between atoms: _246  and  _249
REMARK  102  A    between atoms: _249  and  _250
REMARK  103  A    between atoms: _253  and  _255
REMARK  104  A    between atoms: _255  and  _256
REMARK  105  A    between atoms: _255  and  _258
REMARK  106  A    between atoms: _258  and  _259
REMARK  107  A    between atoms: _259  and  _260
REMARK  108  A    between atoms: _260  and  _261
REMARK                            x       y       z     vdW  Elec       q    Type
REMARK                         _______ _______ _______ _____ _____    ______ ____
ROOT
ATOM      1  O   HOH     1       9.384  -9.854   3.999  0.00  0.00    +0.000 OA
ENDROOT
TORSDOF 0
REMARK  Name = ../refined-set-2016/4np3/4np3_pocket.pdb
REMARK  108 active torsions:
REMARK  status: ('A' for Active; 'I' for Inactive)
REMARK    1  A    between atoms: _1  and  _3
REMARK    2  A    between atoms: _3  and  _4
REMARK    3  A    between atoms: _3  and  _6
REMARK    4  A    between atoms: _6  and  _7
REMARK    5  A    between atoms: _10  and  _12
REMARK    6  A    between atoms: _12  and  _13
REMARK    7  A    between atoms: _12  and  _15
REMARK    8  A    between atoms: _15  and  _16
REMARK    9  A    between atoms: _19  and  _21
REMARK   10  A    between atoms: _21  and  _22
REMARK   11  A    between atoms: _21  and  _24
REMARK   12  A    between atoms: _24  and  _25
REMARK   13  A    between atoms: _30  and  _32
REMARK   14  A    between atoms: _32  and  _33
REMARK   15  A    between atoms: _32  and  _35
REMARK   16  A    between atoms: _38  and  _40
REMARK   17  A    between atoms: _40  and  _41
REMARK   18  A    between atoms: _40  and  _43
REMARK   19  A    between atoms: _43  and  _44
REMARK   20  A    between atoms: _47  and  _49
REMARK   21  A    between atoms: _49  and  _50
REMARK   22  A    between atoms: _49  and  _52
REMARK   23  A    between atoms: _54  and  _56
REMARK   24  A    between atoms: _56  and  _57
REMARK   25  A    between atoms: _56  and  _59
REMARK   26  A    between atoms: _59  and  _60
REMARK   27  A    between atoms: _65  and  _67
REMARK   28  A    between atoms: _67  and  _68
REMARK   29  A    between atoms: _67  and  _70
REMARK   30  A    between atoms: _73  and  _75
REMARK   31  A    between atoms: _75  and  _76
REMARK   32  A    between atoms: _75  and  _78
REMARK   33  A    between atoms: _78  and  _79
REMARK   34  A    between atoms: _79  and  _80
REMARK   35  A    between atoms: _83  and  _85
REMARK   36  A    between atoms: _85  and  _86
REMARK   37  A    between atoms: _85  and  _88
REMARK   38  A    between atoms: _88  and  _89
REMARK   39  A    between atoms: _89  and  _90
REMARK   40  A    between atoms: _90  and  _91
REMARK   41  A    between atoms: _91  and  _92
REMARK   42  A    between atoms: _96  and  _98
REMARK   43  A    between atoms: _98  and  _99
REMARK   44  A    between atoms: _98  and  _101
REMARK   45  A    between atoms: _101  and  _102
REMARK   46  A    between atoms: _107  and  _109
REMARK   47  A    between atoms: _109  and  _110
REMARK   48  A    between atoms: _112  and  _114
REMARK   49  A    between atoms: _114  and  _115
REMARK   50  A    between atoms: _114  and  _117
REMARK   51  A    between atoms: _117  and  _118
REMARK   52  A    between atoms: _118  and  _119
REMARK   53  A    between atoms: _119  and  _120
REMARK   54  A    between atoms: _129  and  _131
REMARK   55  A    between atoms: _131  and  _132
REMARK   56  A    between atoms: _131  and  _134
REMARK   57  A    between atoms: _134  and  _135
REMARK   58  A    between atoms: _140  and  _141
REMARK   59  A    between atoms: _143  and  _145
REMARK   60  A    between atoms: _145  and  _146
REMARK   61  A    between atoms: _145  and  _148
REMARK   62  A    between atoms: _148  and  _149
REMARK   63  A    between atoms: _152  and  _154
REMARK   64  A    between atoms: _154  and  _155
REMARK   65  A    between atoms: _154  and  _157
REMARK   66  A    between atoms: _159  and  _161
REMARK   67  A    between atoms: _161  and  _162
REMARK   68  A    between atoms: _161  and  _164
REMARK   69  A    between atoms: _164  and  _165
REMARK   70  A    between atoms: _165  and  _166
REMARK   71  A    between atoms: _166  and  _167
REMARK   72  A    between atoms: _176  and  _178
REMARK   73  A    between atoms: _178  and  _179
REMARK   74  A    between atoms: _178  and  _181
REMARK   75  A    between atoms: _181  and  _182
REMARK   76  A    between atoms: _185  and  _187
REMARK   77  A    between atoms: _187  and  _188
REMARK   78  A    between atoms: _187  and  _190
REMARK   79  A    between atoms: _190  and  _191
REMARK   80  A    between atoms: _194  and  _196
REMARK   81  A    between atoms: _196  and  _197
REMARK   82  A    between atoms: _196  and  _199
REMARK   83  A    between atoms: _202  and  _204
REMARK   84  A    between atoms: _204  and  _205
REMARK   85  A    between atoms: _204  and  _207
REMARK   86  A    between atoms: _207  and  _208
REMARK   87  A    between atoms: _213  and  _215
REMARK   88  A    between atoms: _215  and  _216
REMARK   89  A    between atoms: _215  and  _218
REMARK   90  A    between atoms: _218  and  _219
REMARK   91  A    between atoms: _219  and  _220
REMARK   92  A    between atoms: _220  and  _221
REMARK   93  A    between atoms: _230  and  _232
REMARK   94  A    between atoms: _232  and  _233
REMARK   95  A    between atoms: _232  and  _235
REMARK   96  A    between atoms: _235  and  _236
REMARK   97  A    between atoms: _239  and  _241
REMARK   98  A    between atoms: _241  and  _242
REMARK   99  A    between atoms: _244  and  _246
REMARK  100  A    between atoms: _246  and  _247
REMARK  101  A    between atoms: _246  and  _249
REMARK  102  A    between atoms: _249  and  _250
REMARK  103  A    between atoms: _253  and  _255
REMARK  104  A    between atoms: _255  and  _256
REMARK  105  A    between atoms: _255  and  _258
REMARK  106  A    between atoms: _258  and  _259
REMARK  107  A    between atoms: _259  and  _260
REMARK  108  A    between atoms: _260  and  _261
REMARK                            x       y       z     vdW  Elec       q    Type
REMARK                         _______ _______ _______ _____ _____    ______ ____
ROOT
ATOM      1  O   HOH     1      11.112 -10.740  -3.849  0.00  0.00    +0.000 OA
ENDROOT
TORSDOF 0
REMARK  Name = ../refined-set-2016/4np3/4np3_pocket.pdb
REMARK  108 active torsions:
REMARK  status: ('A' for Active; 'I' for Inactive)
REMARK    1  A    between atoms: _1  and  _3
REMARK    2  A    between atoms: _3  and  _4
REMARK    3  A    between atoms: _3  and  _6
REMARK    4  A    between atoms: _6  and  _7
REMARK    5  A    between atoms: _10  and  _12
REMARK    6  A    between atoms: _12  and  _13
REMARK    7  A    between atoms: _12  and  _15
REMARK    8  A    between atoms: _15  and  _16
REMARK    9  A    between atoms: _19  and  _21
REMARK   10  A    between atoms: _21  and  _22
REMARK   11  A    between atoms: _21  and  _24
REMARK   12  A    between atoms: _24  and  _25
REMARK   13  A    between atoms: _30  and  _32
REMARK   14  A    between atoms: _32  and  _33
REMARK   15  A    between atoms: _32  and  _35
REMARK   16  A    between atoms: _38  and  _40
REMARK   17  A    between atoms: _40  and  _41
REMARK   18  A    between atoms: _40  and  _43
REMARK   19  A    between atoms: _43  and  _44
REMARK   20  A    between atoms: _47  and  _49
REMARK   21  A    between atoms: _49  and  _50
REMARK   22  A    between atoms: _49  and  _52
REMARK   23  A    between atoms: _54  and  _56
REMARK   24  A    between atoms: _56  and  _57
REMARK   25  A    between atoms: _56  and  _59
REMARK   26  A    between atoms: _59  and  _60
REMARK   27  A    between atoms: _65  and  _67
REMARK   28  A    between atoms: _67  and  _68
REMARK   29  A    between atoms: _67  and  _70
REMARK   30  A    between atoms: _73  and  _75
REMARK   31  A    between atoms: _75  and  _76
REMARK   32  A    between atoms: _75  and  _78
REMARK   33  A    between atoms: _78  and  _79
REMARK   34  A    between atoms: _79  and  _80
REMARK   35  A    between atoms: _83  and  _85
REMARK   36  A    between atoms: _85  and  _86
REMARK   37  A    between atoms: _85  and  _88
REMARK   38  A    between atoms: _88  and  _89
REMARK   39  A    between atoms: _89  and  _90
REMARK   40  A    between atoms: _90  and  _91
REMARK   41  A    between atoms: _91  and  _92
REMARK   42  A    between atoms: _96  and  _98
REMARK   43  A    between atoms: _98  and  _99
REMARK   44  A    between atoms: _98  and  _101
REMARK   45  A    between atoms: _101  and  _102
REMARK   46  A    between atoms: _107  and  _109
REMARK   47  A    between atoms: _109  and  _110
REMARK   48  A    between atoms: _112  and  _114
REMARK   49  A    between atoms: _114  and  _115
REMARK   50  A    between atoms: _114  and  _117
REMARK   51  A    between atoms: _117  and  _118
REMARK   52  A    between atoms: _118  and  _119
REMARK   53  A    between atoms: _119  and  _120
REMARK   54  A    between atoms: _129  and  _131
REMARK   55  A    between atoms: _131  and  _132
REMARK   56  A    between atoms: _131  and  _134
REMARK   57  A    between atoms: _134  and  _135
REMARK   58  A    between atoms: _140  and  _141
REMARK   59  A    between atoms: _143  and  _145
REMARK   60  A    between atoms: _145  and  _146
REMARK   61  A    between atoms: _145  and  _148
REMARK   62  A    between atoms: _148  and  _149
REMARK   63  A    between atoms: _152  and  _154
REMARK   64  A    between atoms: _154  and  _155
REMARK   65  A    between atoms: _154  and  _157
REMARK   66  A    between atoms: _159  and  _161
REMARK   67  A    between atoms: _161  and  _162
REMARK   68  A    between atoms: _161  and  _164
REMARK   69  A    between atoms: _164  and  _165
REMARK   70  A    between atoms: _165  and  _166
REMARK   71  A    between atoms: _166  and  _167
REMARK   72  A    between atoms: _176  and  _178
REMARK   73  A    between atoms: _178  and  _179
REMARK   74  A    between atoms: _178  and  _181
REMARK   75  A    between atoms: _181  and  _182
REMARK   76  A    between atoms: _185  and  _187
REMARK   77  A    between atoms: _187  and  _188
REMARK   78  A    between atoms: _187  and  _190
REMARK   79  A    between atoms: _190  and  _191
REMARK   80  A    between atoms: _194  and  _196
REMARK   81  A    between atoms: _196  and  _197
REMARK   82  A    between atoms: _196  and  _199
REMARK   83  A    between atoms: _202  and  _204
REMARK   84  A    between atoms: _204  and  _205
REMARK   85  A    between atoms: _204  and  _207
REMARK   86  A    between atoms: _207  and  _208
REMARK   87  A    between atoms: _213  and  _215
REMARK   88  A    between atoms: _215  and  _216
REMARK   89  A    between atoms: _215  and  _218
REMARK   90  A    between atoms: _218  and  _219
REMARK   91  A    between atoms: _219  and  _220
REMARK   92  A    between atoms: _220  and  _221
REMARK   93  A    between atoms: _230  and  _232
REMARK   94  A    between atoms: _232  and  _233
REMARK   95  A    between atoms: _232  and  _235
REMARK   96  A    between atoms: _235  and  _236
REMARK   97  A    between atoms: _239  and  _241
REMARK   98  A    between atoms: _241  and  _242
REMARK   99  A    between atoms: _244  and  _246
REMARK  100  A    between atoms: _246  and  _247
REMARK  101  A    between atoms: _246  and  _249
REMARK  102  A    between atoms: _249  and  _250
REMARK  103  A    between atoms: _253  and  _255
REMARK  104  A    between atoms: _255  and  _256
REMARK  105  A    between atoms: _255  and  _258
REMARK  106  A    between atoms: _258  and  _259
REMARK  107  A    between atoms: _259  and  _260
REMARK  108  A    between atoms: _260  and  _261
REMARK                            x       y       z     vdW  Elec       q    Type
REMARK                         _______ _______ _______ _____ _____    ______ ____
ROOT
ATOM      1  O   HOH     1       9.859 -10.137   6.946  0.00  0.00    +0.000 OA
ENDROOT
TORSDOF 0
