REMARK  Name = ../refined-set-2016/2xpc/2xpc_pocket.pdb
REMARK  246 active torsions:
REMARK  status: ('A' for Active; 'I' for Inactive)
REMARK    1  A    between atoms: _1  and  _3
REMARK    2  A    between atoms: _3  and  _4
REMARK    3  A    between atoms: _3  and  _6
REMARK    4  A    between atoms: _6  and  _7
REMARK    5  A    between atoms: _10  and  _12
REMARK    6  A    between atoms: _12  and  _13
REMARK    7  A    between atoms: _12  and  _15
REMARK    8  A    between atoms: _15  and  _16
REMARK    9  A    between atoms: _19  and  _21
REMARK   10  A    between atoms: _21  and  _22
REMARK   11  A    between atoms: _24  and  _26
REMARK   12  A    between atoms: _26  and  _27
REMARK   13  A    between atoms: _26  and  _29
REMARK   14  A    between atoms: _29  and  _30
REMARK   15  A    between atoms: _33  and  _35
REMARK   16  A    between atoms: _35  and  _36
REMARK   17  A    between atoms: _38  and  _40
REMARK   18  A    between atoms: _40  and  _41
REMARK   19  A    between atoms: _40  and  _43
REMARK   20  A    between atoms: _43  and  _44
REMARK   21  A    between atoms: _47  and  _49
REMARK   22  A    between atoms: _49  and  _50
REMARK   23  A    between atoms: _49  and  _52
REMARK   24  A    between atoms: _52  and  _53
REMARK   25  A    between atoms: _56  and  _58
REMARK   26  A    between atoms: _58  and  _59
REMARK   27  A    between atoms: _61  and  _63
REMARK   28  A    between atoms: _63  and  _64
REMARK   29  A    between atoms: _63  and  _66
REMARK   30  A    between atoms: _66  and  _67
REMARK   31  A    between atoms: _67  and  _68
REMARK   32  A    between atoms: _70  and  _72
REMARK   33  A    between atoms: _72  and  _73
REMARK   34  A    between atoms: _72  and  _75
REMARK   35  A    between atoms: _75  and  _76
REMARK   36  A    between atoms: _79  and  _81
REMARK   37  A    between atoms: _81  and  _82
REMARK   38  A    between atoms: _81  and  _84
REMARK   39  A    between atoms: _84  and  _85
REMARK   40  A    between atoms: _88  and  _90
REMARK   41  A    between atoms: _90  and  _91
REMARK   42  A    between atoms: _90  and  _93
REMARK   43  A    between atoms: _93  and  _94
REMARK   44  A    between atoms: _94  and  _95
REMARK   45  A    between atoms: _95  and  _96
REMARK   46  A    between atoms: _106  and  _107
REMARK   47  A    between atoms: _113  and  _114
REMARK   48  A    between atoms: _119  and  _121
REMARK   49  A    between atoms: _121  and  _122
REMARK   50  A    between atoms: _121  and  _124
REMARK   51  A    between atoms: _124  and  _125
REMARK   52  A    between atoms: _130  and  _132
REMARK   53  A    between atoms: _132  and  _133
REMARK   54  A    between atoms: _135  and  _137
REMARK   55  A    between atoms: _137  and  _138
REMARK   56  A    between atoms: _137  and  _140
REMARK   57  A    between atoms: _140  and  _141
REMARK   58  A    between atoms: _143  and  _145
REMARK   59  A    between atoms: _145  and  _146
REMARK   60  A    between atoms: _145  and  _148
REMARK   61  A    between atoms: _148  and  _149
REMARK   62  A    between atoms: _152  and  _154
REMARK   63  A    between atoms: _154  and  _155
REMARK   64  A    between atoms: _154  and  _157
REMARK   65  A    between atoms: _157  and  _158
REMARK   66  A    between atoms: _163  and  _165
REMARK   67  A    between atoms: _165  and  _166
REMARK   68  A    between atoms: _169  and  _171
REMARK   69  A    between atoms: _171  and  _172
REMARK   70  A    between atoms: _171  and  _174
REMARK   71  A    between atoms: _174  and  _175
REMARK   72  A    between atoms: _178  and  _179
REMARK   73  A    between atoms: _184  and  _186
REMARK   74  A    between atoms: _186  and  _187
REMARK   75  A    between atoms: _189  and  _191
REMARK   76  A    between atoms: _191  and  _192
REMARK   77  A    between atoms: _191  and  _194
REMARK   78  A    between atoms: _194  and  _195
REMARK   79  A    between atoms: _198  and  _200
REMARK   80  A    between atoms: _200  and  _201
REMARK   81  A    between atoms: _204  and  _206
REMARK   82  A    between atoms: _206  and  _207
REMARK   83  A    between atoms: _206  and  _209
REMARK   84  A    between atoms: _209  and  _210
REMARK   85  A    between atoms: _215  and  _217
REMARK   86  A    between atoms: _217  and  _218
REMARK   87  A    between atoms: _217  and  _220
REMARK   88  A    between atoms: _220  and  _221
REMARK   89  A    between atoms: _223  and  _225
REMARK   90  A    between atoms: _225  and  _226
REMARK   91  A    between atoms: _225  and  _228
REMARK   92  A    between atoms: _228  and  _229
REMARK   93  A    between atoms: _229  and  _230
REMARK   94  A    between atoms: _230  and  _231
REMARK   95  A    between atoms: _231  and  _232
REMARK   96  A    between atoms: _236  and  _238
REMARK   97  A    between atoms: _238  and  _239
REMARK   98  A    between atoms: _238  and  _241
REMARK   99  A    between atoms: _241  and  _242
REMARK  100  A    between atoms: _247  and  _249
REMARK  101  A    between atoms: _249  and  _250
REMARK  102  A    between atoms: _249  and  _252
REMARK  103  A    between atoms: _252  and  _253
REMARK  104  A    between atoms: _255  and  _257
REMARK  105  A    between atoms: _257  and  _258
REMARK  106  A    between atoms: _257  and  _260
REMARK  107  A    between atoms: _260  and  _261
REMARK  108  A    between atoms: _263  and  _265
REMARK  109  A    between atoms: _265  and  _266
REMARK  110  A    between atoms: _265  and  _268
REMARK  111  A    between atoms: _268  and  _269
REMARK  112  A    between atoms: _275  and  _277
REMARK  113  A    between atoms: _277  and  _278
REMARK  114  A    between atoms: _277  and  _280
REMARK  115  A    between atoms: _280  and  _281
REMARK  116  A    between atoms: _281  and  _282
REMARK  117  A    between atoms: _287  and  _289
REMARK  118  A    between atoms: _289  and  _290
REMARK  119  A    between atoms: _289  and  _292
REMARK  120  A    between atoms: _292  and  _293
REMARK  121  A    between atoms: _296  and  _298
REMARK  122  A    between atoms: _298  and  _299
REMARK  123  A    between atoms: _298  and  _301
REMARK  124  A    between atoms: _301  and  _302
REMARK  125  A    between atoms: _307  and  _309
REMARK  126  A    between atoms: _309  and  _310
REMARK  127  A    between atoms: _309  and  _312
REMARK  128  A    between atoms: _312  and  _313
REMARK  129  A    between atoms: _313  and  _314
REMARK  130  A    between atoms: _316  and  _318
REMARK  131  A    between atoms: _318  and  _319
REMARK  132  A    between atoms: _318  and  _321
REMARK  133  A    between atoms: _321  and  _322
REMARK  134  A    between atoms: _325  and  _327
REMARK  135  A    between atoms: _327  and  _328
REMARK  136  A    between atoms: _327  and  _330
REMARK  137  A    between atoms: _330  and  _331
REMARK  138  A    between atoms: _331  and  _332
REMARK  139  A    between atoms: _332  and  _333
REMARK  140  A    between atoms: _342  and  _344
REMARK  141  A    between atoms: _344  and  _345
REMARK  142  A    between atoms: _344  and  _347
REMARK  143  A    between atoms: _347  and  _348
REMARK  144  A    between atoms: _353  and  _354
REMARK  145  A    between atoms: _356  and  _358
REMARK  146  A    between atoms: _358  and  _359
REMARK  147  A    between atoms: _358  and  _365
REMARK  148  A    between atoms: _359  and  _360
REMARK  149  A    between atoms: _360  and  _361
REMARK  150  A    between atoms: _361  and  _362
REMARK  151  A    between atoms: _362  and  _363
REMARK  152  A    between atoms: _370  and  _372
REMARK  153  A    between atoms: _372  and  _373
REMARK  154  A    between atoms: _372  and  _375
REMARK  155  A    between atoms: _375  and  _376
REMARK  156  A    between atoms: _378  and  _380
REMARK  157  A    between atoms: _380  and  _381
REMARK  158  A    between atoms: _380  and  _383
REMARK  159  A    between atoms: _383  and  _384
REMARK  160  A    between atoms: _384  and  _385
REMARK  161  A    between atoms: _385  and  _386
REMARK  162  A    between atoms: _386  and  _387
REMARK  163  A    between atoms: _391  and  _393
REMARK  164  A    between atoms: _393  and  _394
REMARK  165  A    between atoms: _397  and  _399
REMARK  166  A    between atoms: _399  and  _400
REMARK  167  A    between atoms: _399  and  _402
REMARK  168  A    between atoms: _402  and  _403
REMARK  169  A    between atoms: _406  and  _408
REMARK  170  A    between atoms: _408  and  _409
REMARK  171  A    between atoms: _408  and  _411
REMARK  172  A    between atoms: _411  and  _412
REMARK  173  A    between atoms: _417  and  _419
REMARK  174  A    between atoms: _419  and  _420
REMARK  175  A    between atoms: _419  and  _422
REMARK  176  A    between atoms: _422  and  _423
REMARK  177  A    between atoms: _426  and  _428
REMARK  178  A    between atoms: _428  and  _429
REMARK  179  A    between atoms: _431  and  _433
REMARK  180  A    between atoms: _433  and  _434
REMARK  181  A    between atoms: _433  and  _436
REMARK  182  A    between atoms: _436  and  _437
REMARK  183  A    between atoms: _437  and  _438
REMARK  184  A    between atoms: _438  and  _439
REMARK  185  A    between atoms: _439  and  _440
REMARK  186  A    between atoms: _444  and  _446
REMARK  187  A    between atoms: _446  and  _447
REMARK  188  A    between atoms: _450  and  _452
REMARK  189  A    between atoms: _452  and  _453
REMARK  190  A    between atoms: _452  and  _455
REMARK  191  A    between atoms: _457  and  _459
REMARK  192  A    between atoms: _459  and  _460
REMARK  193  A    between atoms: _463  and  _465
REMARK  194  A    between atoms: _465  and  _466
REMARK  195  A    between atoms: _465  and  _468
REMARK  196  A    between atoms: _468  and  _469
REMARK  197  A    between atoms: _471  and  _473
REMARK  198  A    between atoms: _473  and  _474
REMARK  199  A    between atoms: _473  and  _476
REMARK  200  A    between atoms: _476  and  _477
REMARK  201  A    between atoms: _480  and  _482
REMARK  202  A    between atoms: _482  and  _483
REMARK  203  A    between atoms: _482  and  _485
REMARK  204  A    between atoms: _485  and  _486
REMARK  205  A    between atoms: _489  and  _491
REMARK  206  A    between atoms: _491  and  _492
REMARK  207  A    between atoms: _491  and  _494
REMARK  208  A    between atoms: _494  and  _495
REMARK  209  A    between atoms: _495  and  _496
REMARK  210  A    between atoms: _501  and  _503
REMARK  211  A    between atoms: _503  and  _504
REMARK  212  A    between atoms: _503  and  _506
REMARK  213  A    between atoms: _506  and  _507
REMARK  214  A    between atoms: _513  and  _515
REMARK  215  A    between atoms: _515  and  _516
REMARK  216  A    between atoms: _515  and  _518
REMARK  217  A    between atoms: _518  and  _519
REMARK  218  A    between atoms: _519  and  _520
REMARK  219  A    between atoms: _520  and  _521
REMARK  220  A    between atoms: _521  and  _522
REMARK  221  A    between atoms: _526  and  _528
REMARK  222  A    between atoms: _528  and  _529
REMARK  223  A    between atoms: _528  and  _531
REMARK  224  A    between atoms: _531  and  _532
REMARK  225  A    between atoms: _537  and  _539
REMARK  226  A    between atoms: _539  and  _540
REMARK  227  A    between atoms: _539  and  _542
REMARK  228  A    between atoms: _542  and  _543
REMARK  229  A    between atoms: _549  and  _551
REMARK  230  A    between atoms: _551  and  _552
REMARK  231  A    between atoms: _551  and  _554
REMARK  232  A    between atoms: _554  and  _555
REMARK  233  A    between atoms: _555  and  _556
REMARK  234  A    between atoms: _559  and  _561
REMARK  235  A    between atoms: _561  and  _562
REMARK  236  A    between atoms: _561  and  _564
REMARK  237  A    between atoms: _564  and  _565
REMARK  238  A    between atoms: _565  and  _566
REMARK  239  A    between atoms: _571  and  _573
REMARK  240  A    between atoms: _573  and  _574
REMARK  241  A    between atoms: _573  and  _576
REMARK  242  A    between atoms: _576  and  _577
REMARK  243  A    between atoms: _577  and  _578
REMARK  244  A    between atoms: _578  and  _579
REMARK  245  A    between atoms: _588  and  _590
REMARK  246  A    between atoms: _590  and  _591
REMARK                            x       y       z     vdW  Elec       q    Type
REMARK                         _______ _______ _______ _____ _____    ______ ____
ROOT
ATOM      1  CA  LEU A   4      19.447  39.366  52.613  0.00  0.00    +0.149 C 
ENDROOT
BRANCH   1   4
ATOM      2  C   GLY A   3      20.535  37.261  52.094  0.00  0.00    +0.243 C 
ATOM      3  O   GLY A   3      20.894  37.140  53.271  0.00  0.00    -0.273 OA
ATOM      4  N   LEU A   4      19.821  38.300  51.664  0.00  0.00    -0.297 N 
ATOM      5  H   LEU A   4      19.530  38.359  50.667  0.00  0.00    +0.150 HD
BRANCH   2   6
ATOM      6  CA  GLY A   3      20.806  36.154  51.080  0.00  0.00    +0.176 C 
BRANCH   6   9
ATOM      7  C   ILE A   2      22.780  34.734  51.525  0.00  0.00    +0.241 C 
ATOM      8  O   ILE A   2      22.114  33.902  52.171  0.00  0.00    -0.273 OA
ATOM      9  N   GLY A   3      22.245  35.817  50.974  0.00  0.00    -0.295 N 
ATOM     10  H   GLY A   3      22.866  36.460  50.442  0.00  0.00    +0.150 HD
BRANCH   7  11
ATOM     11  CA  ILE A   2      24.289  34.578  51.346  0.00  0.00    +0.148 C 
BRANCH  11  13
ATOM     12  C   ILE A   1      25.563  35.667  53.134  0.00  0.00    +0.238 C 
ATOM     13  N   ILE A   2      24.904  34.593  52.682  0.00  0.00    -0.297 N 
ATOM     14  H   ILE A   2      24.825  33.752  53.288  0.00  0.00    +0.150 HD
ATOM     15  O   ILE A   1      25.787  36.660  52.444  0.00  0.00    -0.274 OA
BRANCH  12  16
ATOM     16  CA  ILE A   1      26.100  35.597  54.545  0.00  0.00    +0.145 C 
BRANCH  16  17
ATOM     17  N   ILE A   1      27.530  35.905  54.487  0.00  0.00    -0.238 NA
ATOM     18  H   ILE A   1      27.816  36.883  54.280  0.00  0.00    +0.142 HD
ENDBRANCH  16  17
BRANCH  16  19
ATOM     19  CB  ILE A   1      25.342  36.612  55.437  0.00  0.00    +0.025 C 
ATOM     20  CG2 ILE A   1      23.820  36.402  55.355  0.00  0.00    +0.002 C 
BRANCH  19  21
ATOM     21  CG1 ILE A   1      25.825  36.471  56.885  0.00  0.00    +0.002 C 
ATOM     22  CD1 ILE A   1      25.556  37.731  57.770  0.00  0.00    +0.000 C 
ENDBRANCH  19  21
ENDBRANCH  16  19
ENDBRANCH  12  16
ENDBRANCH  11  13
BRANCH  11  23
ATOM     23  CB  ILE A   2      24.517  33.273  50.612  0.00  0.00    +0.027 C 
ATOM     24  CG2 ILE A   2      23.813  33.303  49.222  0.00  0.00    +0.002 C 
BRANCH  23  25
ATOM     25  CG1 ILE A   2      26.021  32.963  50.515  0.00  0.00    +0.002 C 
ATOM     26  CD1 ILE A   2      26.250  31.572  49.937  0.00  0.00    +0.000 C 
ENDBRANCH  23  25
ENDBRANCH  11  23
ENDBRANCH   7  11
ENDBRANCH   6   9
ENDBRANCH   2   6
ENDBRANCH   1   4
BRANCH   1  27
ATOM     27  C   LEU A   4      18.000  39.166  53.105  0.00  0.00    +0.241 C 
ATOM     28  O   LEU A   4      17.713  38.115  53.717  0.00  0.00    -0.273 OA
ATOM     29  N   GLY A   5      17.128  40.155  52.924  0.00  0.00    -0.295 N 
ATOM     30  H   GLY A   5      17.409  40.979  52.354  0.00  0.00    +0.150 HD
BRANCH  29  31
ATOM     31  CA  GLY A   5      15.790  40.116  53.502  0.00  0.00    +0.176 C 
BRANCH  31  32
ATOM     32  C   GLY A   5      15.868  40.077  55.025  0.00  0.00    +0.243 C 
ATOM     33  N   LEU A   6      14.714  39.912  55.669  0.00  0.00    -0.297 N 
ATOM     34  H   LEU A   6      13.845  39.758  55.119  0.00  0.00    +0.150 HD
ATOM     35  O   GLY A   5      16.951  40.189  55.607  0.00  0.00    -0.273 OA
BRANCH  33  36
ATOM     36  CA  LEU A   6      14.638  39.942  57.131  0.00  0.00    +0.149 C 
BRANCH  36  37
ATOM     37  C   LEU A   6      15.510  38.866  57.786  0.00  0.00    +0.241 C 
ATOM     38  O   LEU A   6      16.129  39.094  58.828  0.00  0.00    -0.273 OA
ATOM     39  N   THR A   7      15.599  37.695  57.167  0.00  0.00    -0.295 N 
ATOM     40  H   THR A   7      15.090  37.537  56.274  0.00  0.00    +0.150 HD
BRANCH  39  41
ATOM     41  CA  THR A   7      16.407  36.637  57.740  0.00  0.00    +0.176 C 
BRANCH  41  42
ATOM     42  C   THR A   7      17.881  36.931  57.595  0.00  0.00    +0.243 C 
ATOM     43  O   THR A   7      18.661  36.749  58.538  0.00  0.00    -0.273 OA
ATOM     44  N   GLY A   8      18.293  37.397  56.420  0.00  0.00    -0.296 N 
ATOM     45  H   GLY A   8      17.610  37.530  55.647  0.00  0.00    +0.150 HD
BRANCH  44  46
ATOM     46  CA  GLY A   8      19.700  37.723  56.212  0.00  0.00    +0.163 C 
BRANCH  46  47
ATOM     47  C   GLY A   8      20.042  38.861  57.124  0.00  0.00    +0.229 C 
ATOM     48  O   GLY A   8      21.122  38.855  57.712  0.00  0.00    -0.286 OA
ENDBRANCH  46  47
ENDBRANCH  44  46
ENDBRANCH  41  42
BRANCH  41  49
ATOM     49  CB  THR A   7      16.075  35.310  57.061  0.00  0.00    +0.137 C 
ATOM     50  CG2 THR A   7      16.893  34.186  57.673  0.00  0.00    +0.034 C 
BRANCH  49  51
ATOM     51  OG1 THR A   7      14.674  35.049  57.251  0.00  0.00    -0.382 OA
ATOM     52  HG1 THR A   7      14.438  34.191  56.817  0.00  0.00    +0.210 HD
ENDBRANCH  49  51
ENDBRANCH  41  49
ENDBRANCH  39  41
ENDBRANCH  36  37
BRANCH  36  53
ATOM     53  CB  LEU A   6      13.172  39.779  57.569  0.00  0.00    +0.029 C 
BRANCH  53  54
ATOM     54  CG  LEU A   6      12.824  40.206  58.986  0.00  0.00    +0.002 C 
ATOM     55  CD2 LEU A   6      11.404  39.694  59.295  0.00  0.00    +0.000 C 
ATOM     56  CD1 LEU A   6      12.841  41.746  59.045  0.00  0.00    +0.000 C 
ENDBRANCH  53  54
ENDBRANCH  36  53
ENDBRANCH  33  36
ENDBRANCH  31  32
ENDBRANCH  29  31
ENDBRANCH   1  27
BRANCH   1  57
ATOM     57  CB  LEU A   4      19.701  40.766  52.025  0.00  0.00    +0.029 C 
BRANCH  57  58
ATOM     58  CG  LEU A   4      19.842  41.878  53.070  0.00  0.00    +0.002 C 
ATOM     59  CD2 LEU A   4      20.831  41.566  54.206  0.00  0.00    +0.000 C 
ATOM     60  CD1 LEU A   4      20.222  43.163  52.380  0.00  0.00    +0.000 C 
ENDBRANCH  57  58
ENDBRANCH   1  57
TORSDOF 26
REMARK  Name = ../refined-set-2016/2xpc/2xpc_pocket.pdb
REMARK  246 active torsions:
REMARK  status: ('A' for Active; 'I' for Inactive)
REMARK    1  A    between atoms: _1  and  _3
REMARK    2  A    between atoms: _3  and  _4
REMARK    3  A    between atoms: _3  and  _6
REMARK    4  A    between atoms: _6  and  _7
REMARK    5  A    between atoms: _10  and  _12
REMARK    6  A    between atoms: _12  and  _13
REMARK    7  A    between atoms: _12  and  _15
REMARK    8  A    between atoms: _15  and  _16
REMARK    9  A    between atoms: _19  and  _21
REMARK   10  A    between atoms: _21  and  _22
REMARK   11  A    between atoms: _24  and  _26
REMARK   12  A    between atoms: _26  and  _27
REMARK   13  A    between atoms: _26  and  _29
REMARK   14  A    between atoms: _29  and  _30
REMARK   15  A    between atoms: _33  and  _35
REMARK   16  A    between atoms: _35  and  _36
REMARK   17  A    between atoms: _38  and  _40
REMARK   18  A    between atoms: _40  and  _41
REMARK   19  A    between atoms: _40  and  _43
REMARK   20  A    between atoms: _43  and  _44
REMARK   21  A    between atoms: _47  and  _49
REMARK   22  A    between atoms: _49  and  _50
REMARK   23  A    between atoms: _49  and  _52
REMARK   24  A    between atoms: _52  and  _53
REMARK   25  A    between atoms: _56  and  _58
REMARK   26  A    between atoms: _58  and  _59
REMARK   27  A    between atoms: _61  and  _63
REMARK   28  A    between atoms: _63  and  _64
REMARK   29  A    between atoms: _63  and  _66
REMARK   30  A    between atoms: _66  and  _67
REMARK   31  A    between atoms: _67  and  _68
REMARK   32  A    between atoms: _70  and  _72
REMARK   33  A    between atoms: _72  and  _73
REMARK   34  A    between atoms: _72  and  _75
REMARK   35  A    between atoms: _75  and  _76
REMARK   36  A    between atoms: _79  and  _81
REMARK   37  A    between atoms: _81  and  _82
REMARK   38  A    between atoms: _81  and  _84
REMARK   39  A    between atoms: _84  and  _85
REMARK   40  A    between atoms: _88  and  _90
REMARK   41  A    between atoms: _90  and  _91
REMARK   42  A    between atoms: _90  and  _93
REMARK   43  A    between atoms: _93  and  _94
REMARK   44  A    between atoms: _94  and  _95
REMARK   45  A    between atoms: _95  and  _96
REMARK   46  A    between atoms: _106  and  _107
REMARK   47  A    between atoms: _113  and  _114
REMARK   48  A    between atoms: _119  and  _121
REMARK   49  A    between atoms: _121  and  _122
REMARK   50  A    between atoms: _121  and  _124
REMARK   51  A    between atoms: _124  and  _125
REMARK   52  A    between atoms: _130  and  _132
REMARK   53  A    between atoms: _132  and  _133
REMARK   54  A    between atoms: _135  and  _137
REMARK   55  A    between atoms: _137  and  _138
REMARK   56  A    between atoms: _137  and  _140
REMARK   57  A    between atoms: _140  and  _141
REMARK   58  A    between atoms: _143  and  _145
REMARK   59  A    between atoms: _145  and  _146
REMARK   60  A    between atoms: _145  and  _148
REMARK   61  A    between atoms: _148  and  _149
REMARK   62  A    between atoms: _152  and  _154
REMARK   63  A    between atoms: _154  and  _155
REMARK   64  A    between atoms: _154  and  _157
REMARK   65  A    between atoms: _157  and  _158
REMARK   66  A    between atoms: _163  and  _165
REMARK   67  A    between atoms: _165  and  _166
REMARK   68  A    between atoms: _169  and  _171
REMARK   69  A    between atoms: _171  and  _172
REMARK   70  A    between atoms: _171  and  _174
REMARK   71  A    between atoms: _174  and  _175
REMARK   72  A    between atoms: _178  and  _179
REMARK   73  A    between atoms: _184  and  _186
REMARK   74  A    between atoms: _186  and  _187
REMARK   75  A    between atoms: _189  and  _191
REMARK   76  A    between atoms: _191  and  _192
REMARK   77  A    between atoms: _191  and  _194
REMARK   78  A    between atoms: _194  and  _195
REMARK   79  A    between atoms: _198  and  _200
REMARK   80  A    between atoms: _200  and  _201
REMARK   81  A    between atoms: _204  and  _206
REMARK   82  A    between atoms: _206  and  _207
REMARK   83  A    between atoms: _206  and  _209
REMARK   84  A    between atoms: _209  and  _210
REMARK   85  A    between atoms: _215  and  _217
REMARK   86  A    between atoms: _217  and  _218
REMARK   87  A    between atoms: _217  and  _220
REMARK   88  A    between atoms: _220  and  _221
REMARK   89  A    between atoms: _223  and  _225
REMARK   90  A    between atoms: _225  and  _226
REMARK   91  A    between atoms: _225  and  _228
REMARK   92  A    between atoms: _228  and  _229
REMARK   93  A    between atoms: _229  and  _230
REMARK   94  A    between atoms: _230  and  _231
REMARK   95  A    between atoms: _231  and  _232
REMARK   96  A    between atoms: _236  and  _238
REMARK   97  A    between atoms: _238  and  _239
REMARK   98  A    between atoms: _238  and  _241
REMARK   99  A    between atoms: _241  and  _242
REMARK  100  A    between atoms: _247  and  _249
REMARK  101  A    between atoms: _249  and  _250
REMARK  102  A    between atoms: _249  and  _252
REMARK  103  A    between atoms: _252  and  _253
REMARK  104  A    between atoms: _255  and  _257
REMARK  105  A    between atoms: _257  and  _258
REMARK  106  A    between atoms: _257  and  _260
REMARK  107  A    between atoms: _260  and  _261
REMARK  108  A    between atoms: _263  and  _265
REMARK  109  A    between atoms: _265  and  _266
REMARK  110  A    between atoms: _265  and  _268
REMARK  111  A    between atoms: _268  and  _269
REMARK  112  A    between atoms: _275  and  _277
REMARK  113  A    between atoms: _277  and  _278
REMARK  114  A    between atoms: _277  and  _280
REMARK  115  A    between atoms: _280  and  _281
REMARK  116  A    between atoms: _281  and  _282
REMARK  117  A    between atoms: _287  and  _289
REMARK  118  A    between atoms: _289  and  _290
REMARK  119  A    between atoms: _289  and  _292
REMARK  120  A    between atoms: _292  and  _293
REMARK  121  A    between atoms: _296  and  _298
REMARK  122  A    between atoms: _298  and  _299
REMARK  123  A    between atoms: _298  and  _301
REMARK  124  A    between atoms: _301  and  _302
REMARK  125  A    between atoms: _307  and  _309
REMARK  126  A    between atoms: _309  and  _310
REMARK  127  A    between atoms: _309  and  _312
REMARK  128  A    between atoms: _312  and  _313
REMARK  129  A    between atoms: _313  and  _314
REMARK  130  A    between atoms: _316  and  _318
REMARK  131  A    between atoms: _318  and  _319
REMARK  132  A    between atoms: _318  and  _321
REMARK  133  A    between atoms: _321  and  _322
REMARK  134  A    between atoms: _325  and  _327
REMARK  135  A    between atoms: _327  and  _328
REMARK  136  A    between atoms: _327  and  _330
REMARK  137  A    between atoms: _330  and  _331
REMARK  138  A    between atoms: _331  and  _332
REMARK  139  A    between atoms: _332  and  _333
REMARK  140  A    between atoms: _342  and  _344
REMARK  141  A    between atoms: _344  and  _345
REMARK  142  A    between atoms: _344  and  _347
REMARK  143  A    between atoms: _347  and  _348
REMARK  144  A    between atoms: _353  and  _354
REMARK  145  A    between atoms: _356  and  _358
REMARK  146  A    between atoms: _358  and  _359
REMARK  147  A    between atoms: _358  and  _365
REMARK  148  A    between atoms: _359  and  _360
REMARK  149  A    between atoms: _360  and  _361
REMARK  150  A    between atoms: _361  and  _362
REMARK  151  A    between atoms: _362  and  _363
REMARK  152  A    between atoms: _370  and  _372
REMARK  153  A    between atoms: _372  and  _373
REMARK  154  A    between atoms: _372  and  _375
REMARK  155  A    between atoms: _375  and  _376
REMARK  156  A    between atoms: _378  and  _380
REMARK  157  A    between atoms: _380  and  _381
REMARK  158  A    between atoms: _380  and  _383
REMARK  159  A    between atoms: _383  and  _384
REMARK  160  A    between atoms: _384  and  _385
REMARK  161  A    between atoms: _385  and  _386
REMARK  162  A    between atoms: _386  and  _387
REMARK  163  A    between atoms: _391  and  _393
REMARK  164  A    between atoms: _393  and  _394
REMARK  165  A    between atoms: _397  and  _399
REMARK  166  A    between atoms: _399  and  _400
REMARK  167  A    between atoms: _399  and  _402
REMARK  168  A    between atoms: _402  and  _403
REMARK  169  A    between atoms: _406  and  _408
REMARK  170  A    between atoms: _408  and  _409
REMARK  171  A    between atoms: _408  and  _411
REMARK  172  A    between atoms: _411  and  _412
REMARK  173  A    between atoms: _417  and  _419
REMARK  174  A    between atoms: _419  and  _420
REMARK  175  A    between atoms: _419  and  _422
REMARK  176  A    between atoms: _422  and  _423
REMARK  177  A    between atoms: _426  and  _428
REMARK  178  A    between atoms: _428  and  _429
REMARK  179  A    between atoms: _431  and  _433
REMARK  180  A    between atoms: _433  and  _434
REMARK  181  A    between atoms: _433  and  _436
REMARK  182  A    between atoms: _436  and  _437
REMARK  183  A    between atoms: _437  and  _438
REMARK  184  A    between atoms: _438  and  _439
REMARK  185  A    between atoms: _439  and  _440
REMARK  186  A    between atoms: _444  and  _446
REMARK  187  A    between atoms: _446  and  _447
REMARK  188  A    between atoms: _450  and  _452
REMARK  189  A    between atoms: _452  and  _453
REMARK  190  A    between atoms: _452  and  _455
REMARK  191  A    between atoms: _457  and  _459
REMARK  192  A    between atoms: _459  and  _460
REMARK  193  A    between atoms: _463  and  _465
REMARK  194  A    between atoms: _465  and  _466
REMARK  195  A    between atoms: _465  and  _468
REMARK  196  A    between atoms: _468  and  _469
REMARK  197  A    between atoms: _471  and  _473
REMARK  198  A    between atoms: _473  and  _474
REMARK  199  A    between atoms: _473  and  _476
REMARK  200  A    between atoms: _476  and  _477
REMARK  201  A    between atoms: _480  and  _482
REMARK  202  A    between atoms: _482  and  _483
REMARK  203  A    between atoms: _482  and  _485
REMARK  204  A    between atoms: _485  and  _486
REMARK  205  A    between atoms: _489  and  _491
REMARK  206  A    between atoms: _491  and  _492
REMARK  207  A    between atoms: _491  and  _494
REMARK  208  A    between atoms: _494  and  _495
REMARK  209  A    between atoms: _495  and  _496
REMARK  210  A    between atoms: _501  and  _503
REMARK  211  A    between atoms: _503  and  _504
REMARK  212  A    between atoms: _503  and  _506
REMARK  213  A    between atoms: _506  and  _507
REMARK  214  A    between atoms: _513  and  _515
REMARK  215  A    between atoms: _515  and  _516
REMARK  216  A    between atoms: _515  and  _518
REMARK  217  A    between atoms: _518  and  _519
REMARK  218  A    between atoms: _519  and  _520
REMARK  219  A    between atoms: _520  and  _521
REMARK  220  A    between atoms: _521  and  _522
REMARK  221  A    between atoms: _526  and  _528
REMARK  222  A    between atoms: _528  and  _529
REMARK  223  A    between atoms: _528  and  _531
REMARK  224  A    between atoms: _531  and  _532
REMARK  225  A    between atoms: _537  and  _539
REMARK  226  A    between atoms: _539  and  _540
REMARK  227  A    between atoms: _539  and  _542
REMARK  228  A    between atoms: _542  and  _543
REMARK  229  A    between atoms: _549  and  _551
REMARK  230  A    between atoms: _551  and  _552
REMARK  231  A    between atoms: _551  and  _554
REMARK  232  A    between atoms: _554  and  _555
REMARK  233  A    between atoms: _555  and  _556
REMARK  234  A    between atoms: _559  and  _561
REMARK  235  A    between atoms: _561  and  _562
REMARK  236  A    between atoms: _561  and  _564
REMARK  237  A    between atoms: _564  and  _565
REMARK  238  A    between atoms: _565  and  _566
REMARK  239  A    between atoms: _571  and  _573
REMARK  240  A    between atoms: _573  and  _574
REMARK  241  A    between atoms: _573  and  _576
REMARK  242  A    between atoms: _576  and  _577
REMARK  243  A    between atoms: _577  and  _578
REMARK  244  A    between atoms: _578  and  _579
REMARK  245  A    between atoms: _588  and  _590
REMARK  246  A    between atoms: _590  and  _591
REMARK                            x       y       z     vdW  Elec       q    Type
REMARK                         _______ _______ _______ _____ _____    ______ ____
ROOT
ATOM      1  CA  THR A   3      22.173  36.844  43.498  0.00  0.00    +0.176 C 
ENDROOT
BRANCH   1   4
ATOM      2  C   ASP A   2      22.797  37.964  45.574  0.00  0.00    +0.241 C 
ATOM      3  O   ASP A   2      23.353  38.895  44.966  0.00  0.00    -0.273 OA
ATOM      4  N   THR A   3      22.267  36.912  44.958  0.00  0.00    -0.295 N 
ATOM      5  H   THR A   3      21.910  36.118  45.527  0.00  0.00    +0.150 HD
BRANCH   2   6
ATOM      6  CA  ASP A   2      22.774  37.941  47.091  0.00  0.00    +0.160 C 
BRANCH   6   9
ATOM      7  C   MET A   1      24.631  38.058  48.654  0.00  0.00    +0.238 C 
ATOM      8  O   MET A   1      23.991  37.401  49.507  0.00  0.00    -0.274 OA
ATOM      9  N   ASP A   2      24.111  38.402  47.479  0.00  0.00    -0.297 N 
ATOM     10  H   ASP A   2      24.657  39.003  46.830  0.00  0.00    +0.150 HD
BRANCH   7  11
ATOM     11  CA  MET A   1      26.036  38.584  48.963  0.00  0.00    +0.146 C 
BRANCH  11  12
ATOM     12  N   MET A   1      26.239  38.649  50.397  0.00  0.00    -0.238 NA
ATOM     13  H   MET A   1      25.985  37.834  50.991  0.00  0.00    +0.142 HD
ENDBRANCH  11  12
BRANCH  11  14
ATOM     14  CB  MET A   1      27.116  37.715  48.268  0.00  0.00    +0.038 C 
BRANCH  14  15
ATOM     15  CG  MET A   1      27.103  36.279  48.707  0.00  0.00    +0.060 C 
BRANCH  15  16
ATOM     16  SD  MET A   1      28.420  35.323  47.882  0.00  0.00    -0.139 S 
ATOM     17  CE  MET A   1      29.880  36.176  48.518  0.00  0.00    +0.069 C 
ENDBRANCH  15  16
ENDBRANCH  14  15
ENDBRANCH  11  14
ENDBRANCH   7  11
ENDBRANCH   6   9
BRANCH   6  18
ATOM     18  CB  ASP A   2      21.724  38.898  47.681  0.00  0.00    +0.143 C 
BRANCH  18  19
ATOM     19  CG  ASP A   2      20.311  38.344  47.672  0.00  0.00    +0.367 C 
ATOM     20  OD2 ASP A   2      19.685  38.342  48.762  0.00  0.00    -0.246 OA
ATOM     21  OD1 ASP A   2      19.814  37.991  46.582  0.00  0.00    -0.246 OA
ENDBRANCH  18  19
ENDBRANCH   6  18
ENDBRANCH   2   6
ENDBRANCH   1   4
BRANCH   1  22
ATOM     22  C   THR A   3      21.187  37.884  42.932  0.00  0.00    +0.243 C 
ATOM     23  N   ARG A   4      20.303  38.447  43.769  0.00  0.00    -0.298 N 
ATOM     24  H   ARG A   4      20.248  38.104  44.749  0.00  0.00    +0.150 HD
ATOM     25  O   THR A   3      21.264  38.199  41.733  0.00  0.00    -0.273 OA
BRANCH  23  26
ATOM     26  CA  ARG A   4      19.398  39.548  43.339  0.00  0.00    +0.137 C 
BRANCH  26  27
ATOM     27  C   ARG A   4      20.108  40.922  43.366  0.00  0.00    +0.227 C 
ATOM     28  O   ARG A   4      20.822  41.217  44.332  0.00  0.00    -0.286 OA
ENDBRANCH  26  27
BRANCH  26  29
ATOM     29  CB  ARG A   4      18.147  39.598  44.221  0.00  0.00    +0.031 C 
BRANCH  29  30
ATOM     30  CG  ARG A   4      17.374  38.282  44.275  0.00  0.00    +0.045 C 
BRANCH  30  31
ATOM     31  CD  ARG A   4      16.309  38.332  45.361  0.00  0.00    +0.174 C 
BRANCH  31  32
ATOM     32  NE  ARG A   4      16.905  38.220  46.689  0.00  0.00    -0.265 N 
ATOM     33  CZ  ARG A   4      16.217  38.040  47.809  0.00  0.00    +0.342 C 
ATOM     34  NH2 ARG A   4      16.836  37.957  48.970  0.00  0.00    -0.292 N 
ATOM     35 HH21 ARG A   4      16.288  37.816  49.843  0.00  0.00    +0.255 HD
ATOM     36 HH22 ARG A   4      17.872  38.033  49.013  0.00  0.00    +0.255 HD
ATOM     37  NH1 ARG A   4      14.892  37.967  47.758  0.00  0.00    -0.292 N 
ATOM     38 HH11 ARG A   4      14.345  37.826  48.631  0.00  0.00    +0.255 HD
ATOM     39 HH12 ARG A   4      14.401  38.051  46.845  0.00  0.00    +0.255 HD
ATOM     40  HE  ARG A   4      17.940  38.286  46.762  0.00  0.00    +0.259 HD
ENDBRANCH  31  32
ENDBRANCH  30  31
ENDBRANCH  29  30
ENDBRANCH  26  29
ENDBRANCH  23  26
ENDBRANCH   1  22
BRANCH   1  41
ATOM     41  CB  THR A   3      21.736  35.439  43.049  0.00  0.00    +0.137 C 
ATOM     42  CG2 THR A   3      22.791  34.397  43.395  0.00  0.00    +0.034 C 
BRANCH  41  43
ATOM     43  OG1 THR A   3      20.522  35.136  43.738  0.00  0.00    -0.382 OA
ATOM     44  HG1 THR A   3      19.834  35.808  43.503  0.00  0.00    +0.210 HD
ENDBRANCH  41  43
ENDBRANCH   1  41
TORSDOF 19
REMARK  Name = ../refined-set-2016/2xpc/2xpc_pocket.pdb
REMARK  246 active torsions:
REMARK  status: ('A' for Active; 'I' for Inactive)
REMARK    1  A    between atoms: _1  and  _3
REMARK    2  A    between atoms: _3  and  _4
REMARK    3  A    between atoms: _3  and  _6
REMARK    4  A    between atoms: _6  and  _7
REMARK    5  A    between atoms: _10  and  _12
REMARK    6  A    between atoms: _12  and  _13
REMARK    7  A    between atoms: _12  and  _15
REMARK    8  A    between atoms: _15  and  _16
REMARK    9  A    between atoms: _19  and  _21
REMARK   10  A    between atoms: _21  and  _22
REMARK   11  A    between atoms: _24  and  _26
REMARK   12  A    between atoms: _26  and  _27
REMARK   13  A    between atoms: _26  and  _29
REMARK   14  A    between atoms: _29  and  _30
REMARK   15  A    between atoms: _33  and  _35
REMARK   16  A    between atoms: _35  and  _36
REMARK   17  A    between atoms: _38  and  _40
REMARK   18  A    between atoms: _40  and  _41
REMARK   19  A    between atoms: _40  and  _43
REMARK   20  A    between atoms: _43  and  _44
REMARK   21  A    between atoms: _47  and  _49
REMARK   22  A    between atoms: _49  and  _50
REMARK   23  A    between atoms: _49  and  _52
REMARK   24  A    between atoms: _52  and  _53
REMARK   25  A    between atoms: _56  and  _58
REMARK   26  A    between atoms: _58  and  _59
REMARK   27  A    between atoms: _61  and  _63
REMARK   28  A    between atoms: _63  and  _64
REMARK   29  A    between atoms: _63  and  _66
REMARK   30  A    between atoms: _66  and  _67
REMARK   31  A    between atoms: _67  and  _68
REMARK   32  A    between atoms: _70  and  _72
REMARK   33  A    between atoms: _72  and  _73
REMARK   34  A    between atoms: _72  and  _75
REMARK   35  A    between atoms: _75  and  _76
REMARK   36  A    between atoms: _79  and  _81
REMARK   37  A    between atoms: _81  and  _82
REMARK   38  A    between atoms: _81  and  _84
REMARK   39  A    between atoms: _84  and  _85
REMARK   40  A    between atoms: _88  and  _90
REMARK   41  A    between atoms: _90  and  _91
REMARK   42  A    between atoms: _90  and  _93
REMARK   43  A    between atoms: _93  and  _94
REMARK   44  A    between atoms: _94  and  _95
REMARK   45  A    between atoms: _95  and  _96
REMARK   46  A    between atoms: _106  and  _107
REMARK   47  A    between atoms: _113  and  _114
REMARK   48  A    between atoms: _119  and  _121
REMARK   49  A    between atoms: _121  and  _122
REMARK   50  A    between atoms: _121  and  _124
REMARK   51  A    between atoms: _124  and  _125
REMARK   52  A    between atoms: _130  and  _132
REMARK   53  A    between atoms: _132  and  _133
REMARK   54  A    between atoms: _135  and  _137
REMARK   55  A    between atoms: _137  and  _138
REMARK   56  A    between atoms: _137  and  _140
REMARK   57  A    between atoms: _140  and  _141
REMARK   58  A    between atoms: _143  and  _145
REMARK   59  A    between atoms: _145  and  _146
REMARK   60  A    between atoms: _145  and  _148
REMARK   61  A    between atoms: _148  and  _149
REMARK   62  A    between atoms: _152  and  _154
REMARK   63  A    between atoms: _154  and  _155
REMARK   64  A    between atoms: _154  and  _157
REMARK   65  A    between atoms: _157  and  _158
REMARK   66  A    between atoms: _163  and  _165
REMARK   67  A    between atoms: _165  and  _166
REMARK   68  A    between atoms: _169  and  _171
REMARK   69  A    between atoms: _171  and  _172
REMARK   70  A    between atoms: _171  and  _174
REMARK   71  A    between atoms: _174  and  _175
REMARK   72  A    between atoms: _178  and  _179
REMARK   73  A    between atoms: _184  and  _186
REMARK   74  A    between atoms: _186  and  _187
REMARK   75  A    between atoms: _189  and  _191
REMARK   76  A    between atoms: _191  and  _192
REMARK   77  A    between atoms: _191  and  _194
REMARK   78  A    between atoms: _194  and  _195
REMARK   79  A    between atoms: _198  and  _200
REMARK   80  A    between atoms: _200  and  _201
REMARK   81  A    between atoms: _204  and  _206
REMARK   82  A    between atoms: _206  and  _207
REMARK   83  A    between atoms: _206  and  _209
REMARK   84  A    between atoms: _209  and  _210
REMARK   85  A    between atoms: _215  and  _217
REMARK   86  A    between atoms: _217  and  _218
REMARK   87  A    between atoms: _217  and  _220
REMARK   88  A    between atoms: _220  and  _221
REMARK   89  A    between atoms: _223  and  _225
REMARK   90  A    between atoms: _225  and  _226
REMARK   91  A    between atoms: _225  and  _228
REMARK   92  A    between atoms: _228  and  _229
REMARK   93  A    between atoms: _229  and  _230
REMARK   94  A    between atoms: _230  and  _231
REMARK   95  A    between atoms: _231  and  _232
REMARK   96  A    between atoms: _236  and  _238
REMARK   97  A    between atoms: _238  and  _239
REMARK   98  A    between atoms: _238  and  _241
REMARK   99  A    between atoms: _241  and  _242
REMARK  100  A    between atoms: _247  and  _249
REMARK  101  A    between atoms: _249  and  _250
REMARK  102  A    between atoms: _249  and  _252
REMARK  103  A    between atoms: _252  and  _253
REMARK  104  A    between atoms: _255  and  _257
REMARK  105  A    between atoms: _257  and  _258
REMARK  106  A    between atoms: _257  and  _260
REMARK  107  A    between atoms: _260  and  _261
REMARK  108  A    between atoms: _263  and  _265
REMARK  109  A    between atoms: _265  and  _266
REMARK  110  A    between atoms: _265  and  _268
REMARK  111  A    between atoms: _268  and  _269
REMARK  112  A    between atoms: _275  and  _277
REMARK  113  A    between atoms: _277  and  _278
REMARK  114  A    between atoms: _277  and  _280
REMARK  115  A    between atoms: _280  and  _281
REMARK  116  A    between atoms: _281  and  _282
REMARK  117  A    between atoms: _287  and  _289
REMARK  118  A    between atoms: _289  and  _290
REMARK  119  A    between atoms: _289  and  _292
REMARK  120  A    between atoms: _292  and  _293
REMARK  121  A    between atoms: _296  and  _298
REMARK  122  A    between atoms: _298  and  _299
REMARK  123  A    between atoms: _298  and  _301
REMARK  124  A    between atoms: _301  and  _302
REMARK  125  A    between atoms: _307  and  _309
REMARK  126  A    between atoms: _309  and  _310
REMARK  127  A    between atoms: _309  and  _312
REMARK  128  A    between atoms: _312  and  _313
REMARK  129  A    between atoms: _313  and  _314
REMARK  130  A    between atoms: _316  and  _318
REMARK  131  A    between atoms: _318  and  _319
REMARK  132  A    between atoms: _318  and  _321
REMARK  133  A    between atoms: _321  and  _322
REMARK  134  A    between atoms: _325  and  _327
REMARK  135  A    between atoms: _327  and  _328
REMARK  136  A    between atoms: _327  and  _330
REMARK  137  A    between atoms: _330  and  _331
REMARK  138  A    between atoms: _331  and  _332
REMARK  139  A    between atoms: _332  and  _333
REMARK  140  A    between atoms: _342  and  _344
REMARK  141  A    between atoms: _344  and  _345
REMARK  142  A    between atoms: _344  and  _347
REMARK  143  A    between atoms: _347  and  _348
REMARK  144  A    between atoms: _353  and  _354
REMARK  145  A    between atoms: _356  and  _358
REMARK  146  A    between atoms: _358  and  _359
REMARK  147  A    between atoms: _358  and  _365
REMARK  148  A    between atoms: _359  and  _360
REMARK  149  A    between atoms: _360  and  _361
REMARK  150  A    between atoms: _361  and  _362
REMARK  151  A    between atoms: _362  and  _363
REMARK  152  A    between atoms: _370  and  _372
REMARK  153  A    between atoms: _372  and  _373
REMARK  154  A    between atoms: _372  and  _375
REMARK  155  A    between atoms: _375  and  _376
REMARK  156  A    between atoms: _378  and  _380
REMARK  157  A    between atoms: _380  and  _381
REMARK  158  A    between atoms: _380  and  _383
REMARK  159  A    between atoms: _383  and  _384
REMARK  160  A    between atoms: _384  and  _385
REMARK  161  A    between atoms: _385  and  _386
REMARK  162  A    between atoms: _386  and  _387
REMARK  163  A    between atoms: _391  and  _393
REMARK  164  A    between atoms: _393  and  _394
REMARK  165  A    between atoms: _397  and  _399
REMARK  166  A    between atoms: _399  and  _400
REMARK  167  A    between atoms: _399  and  _402
REMARK  168  A    between atoms: _402  and  _403
REMARK  169  A    between atoms: _406  and  _408
REMARK  170  A    between atoms: _408  and  _409
REMARK  171  A    between atoms: _408  and  _411
REMARK  172  A    between atoms: _411  and  _412
REMARK  173  A    between atoms: _417  and  _419
REMARK  174  A    between atoms: _419  and  _420
REMARK  175  A    between atoms: _419  and  _422
REMARK  176  A    between atoms: _422  and  _423
REMARK  177  A    between atoms: _426  and  _428
REMARK  178  A    between atoms: _428  and  _429
REMARK  179  A    between atoms: _431  and  _433
REMARK  180  A    between atoms: _433  and  _434
REMARK  181  A    between atoms: _433  and  _436
REMARK  182  A    between atoms: _436  and  _437
REMARK  183  A    between atoms: _437  and  _438
REMARK  184  A    between atoms: _438  and  _439
REMARK  185  A    between atoms: _439  and  _440
REMARK  186  A    between atoms: _444  and  _446
REMARK  187  A    between atoms: _446  and  _447
REMARK  188  A    between atoms: _450  and  _452
REMARK  189  A    between atoms: _452  and  _453
REMARK  190  A    between atoms: _452  and  _455
REMARK  191  A    between atoms: _457  and  _459
REMARK  192  A    between atoms: _459  and  _460
REMARK  193  A    between atoms: _463  and  _465
REMARK  194  A    between atoms: _465  and  _466
REMARK  195  A    between atoms: _465  and  _468
REMARK  196  A    between atoms: _468  and  _469
REMARK  197  A    between atoms: _471  and  _473
REMARK  198  A    between atoms: _473  and  _474
REMARK  199  A    between atoms: _473  and  _476
REMARK  200  A    between atoms: _476  and  _477
REMARK  201  A    between atoms: _480  and  _482
REMARK  202  A    between atoms: _482  and  _483
REMARK  203  A    between atoms: _482  and  _485
REMARK  204  A    between atoms: _485  and  _486
REMARK  205  A    between atoms: _489  and  _491
REMARK  206  A    between atoms: _491  and  _492
REMARK  207  A    between atoms: _491  and  _494
REMARK  208  A    between atoms: _494  and  _495
REMARK  209  A    between atoms: _495  and  _496
REMARK  210  A    between atoms: _501  and  _503
REMARK  211  A    between atoms: _503  and  _504
REMARK  212  A    between atoms: _503  and  _506
REMARK  213  A    between atoms: _506  and  _507
REMARK  214  A    between atoms: _513  and  _515
REMARK  215  A    between atoms: _515  and  _516
REMARK  216  A    between atoms: _515  and  _518
REMARK  217  A    between atoms: _518  and  _519
REMARK  218  A    between atoms: _519  and  _520
REMARK  219  A    between atoms: _520  and  _521
REMARK  220  A    between atoms: _521  and  _522
REMARK  221  A    between atoms: _526  and  _528
REMARK  222  A    between atoms: _528  and  _529
REMARK  223  A    between atoms: _528  and  _531
REMARK  224  A    between atoms: _531  and  _532
REMARK  225  A    between atoms: _537  and  _539
REMARK  226  A    between atoms: _539  and  _540
REMARK  227  A    between atoms: _539  and  _542
REMARK  228  A    between atoms: _542  and  _543
REMARK  229  A    between atoms: _549  and  _551
REMARK  230  A    between atoms: _551  and  _552
REMARK  231  A    between atoms: _551  and  _554
REMARK  232  A    between atoms: _554  and  _555
REMARK  233  A    between atoms: _555  and  _556
REMARK  234  A    between atoms: _559  and  _561
REMARK  235  A    between atoms: _561  and  _562
REMARK  236  A    between atoms: _561  and  _564
REMARK  237  A    between atoms: _564  and  _565
REMARK  238  A    between atoms: _565  and  _566
REMARK  239  A    between atoms: _571  and  _573
REMARK  240  A    between atoms: _573  and  _574
REMARK  241  A    between atoms: _573  and  _576
REMARK  242  A    between atoms: _576  and  _577
REMARK  243  A    between atoms: _577  and  _578
REMARK  244  A    between atoms: _578  and  _579
REMARK  245  A    between atoms: _588  and  _590
REMARK  246  A    between atoms: _590  and  _591
REMARK                            x       y       z     vdW  Elec       q    Type
REMARK                         _______ _______ _______ _____ _____    ______ ____
ROOT
ATOM      1  C   PRO A   1      16.670  43.157  48.558  0.00  0.00    +0.242 C 
ATOM      2  N   PRO A   2      15.597  42.554  49.090  0.00  0.00    -0.273 N 
ATOM      3  CA  PRO A   2      14.866  43.264  50.141  0.00  0.00    +0.140 C 
ATOM      4  CB  PRO A   2      13.659  42.358  50.440  0.00  0.00    +0.030 C 
ATOM      5  CG  PRO A   2      13.957  41.044  49.809  0.00  0.00    +0.024 C 
ATOM      6  CD  PRO A   2      15.000  41.252  48.738  0.00  0.00    +0.094 C 
ATOM      7  O   PRO A   1      17.076  44.269  48.941  0.00  0.00    -0.273 OA
ENDROOT
BRANCH   1   9
ATOM      8  N   PRO A   1      18.257  43.264  46.627  0.00  0.00    -0.210 NA
ATOM      9  CA  PRO A   1      17.394  42.406  47.439  0.00  0.00    +0.149 C 
ATOM     10  CB  PRO A   1      18.383  41.412  48.054  0.00  0.00    +0.028 C 
ATOM     11  CG  PRO A   1      19.660  42.186  48.144  0.00  0.00    +0.021 C 
ATOM     12  CD  PRO A   1      19.692  43.054  46.914  0.00  0.00    +0.089 C 
ENDBRANCH   1   9
BRANCH   3  13
ATOM     13  C   PRO A   2      15.755  43.501  51.362  0.00  0.00    +0.227 C 
ATOM     14  O   PRO A   2      16.632  42.685  51.659  0.00  0.00    -0.286 OA
ENDBRANCH   3  13
TORSDOF 2
REMARK  Name = ../refined-set-2016/2xpc/2xpc_pocket.pdb
REMARK  246 active torsions:
REMARK  status: ('A' for Active; 'I' for Inactive)
REMARK    1  A    between atoms: _1  and  _3
REMARK    2  A    between atoms: _3  and  _4
REMARK    3  A    between atoms: _3  and  _6
REMARK    4  A    between atoms: _6  and  _7
REMARK    5  A    between atoms: _10  and  _12
REMARK    6  A    between atoms: _12  and  _13
REMARK    7  A    between atoms: _12  and  _15
REMARK    8  A    between atoms: _15  and  _16
REMARK    9  A    between atoms: _19  and  _21
REMARK   10  A    between atoms: _21  and  _22
REMARK   11  A    between atoms: _24  and  _26
REMARK   12  A    between atoms: _26  and  _27
REMARK   13  A    between atoms: _26  and  _29
REMARK   14  A    between atoms: _29  and  _30
REMARK   15  A    between atoms: _33  and  _35
REMARK   16  A    between atoms: _35  and  _36
REMARK   17  A    between atoms: _38  and  _40
REMARK   18  A    between atoms: _40  and  _41
REMARK   19  A    between atoms: _40  and  _43
REMARK   20  A    between atoms: _43  and  _44
REMARK   21  A    between atoms: _47  and  _49
REMARK   22  A    between atoms: _49  and  _50
REMARK   23  A    between atoms: _49  and  _52
REMARK   24  A    between atoms: _52  and  _53
REMARK   25  A    between atoms: _56  and  _58
REMARK   26  A    between atoms: _58  and  _59
REMARK   27  A    between atoms: _61  and  _63
REMARK   28  A    between atoms: _63  and  _64
REMARK   29  A    between atoms: _63  and  _66
REMARK   30  A    between atoms: _66  and  _67
REMARK   31  A    between atoms: _67  and  _68
REMARK   32  A    between atoms: _70  and  _72
REMARK   33  A    between atoms: _72  and  _73
REMARK   34  A    between atoms: _72  and  _75
REMARK   35  A    between atoms: _75  and  _76
REMARK   36  A    between atoms: _79  and  _81
REMARK   37  A    between atoms: _81  and  _82
REMARK   38  A    between atoms: _81  and  _84
REMARK   39  A    between atoms: _84  and  _85
REMARK   40  A    between atoms: _88  and  _90
REMARK   41  A    between atoms: _90  and  _91
REMARK   42  A    between atoms: _90  and  _93
REMARK   43  A    between atoms: _93  and  _94
REMARK   44  A    between atoms: _94  and  _95
REMARK   45  A    between atoms: _95  and  _96
REMARK   46  A    between atoms: _106  and  _107
REMARK   47  A    between atoms: _113  and  _114
REMARK   48  A    between atoms: _119  and  _121
REMARK   49  A    between atoms: _121  and  _122
REMARK   50  A    between atoms: _121  and  _124
REMARK   51  A    between atoms: _124  and  _125
REMARK   52  A    between atoms: _130  and  _132
REMARK   53  A    between atoms: _132  and  _133
REMARK   54  A    between atoms: _135  and  _137
REMARK   55  A    between atoms: _137  and  _138
REMARK   56  A    between atoms: _137  and  _140
REMARK   57  A    between atoms: _140  and  _141
REMARK   58  A    between atoms: _143  and  _145
REMARK   59  A    between atoms: _145  and  _146
REMARK   60  A    between atoms: _145  and  _148
REMARK   61  A    between atoms: _148  and  _149
REMARK   62  A    between atoms: _152  and  _154
REMARK   63  A    between atoms: _154  and  _155
REMARK   64  A    between atoms: _154  and  _157
REMARK   65  A    between atoms: _157  and  _158
REMARK   66  A    between atoms: _163  and  _165
REMARK   67  A    between atoms: _165  and  _166
REMARK   68  A    between atoms: _169  and  _171
REMARK   69  A    between atoms: _171  and  _172
REMARK   70  A    between atoms: _171  and  _174
REMARK   71  A    between atoms: _174  and  _175
REMARK   72  A    between atoms: _178  and  _179
REMARK   73  A    between atoms: _184  and  _186
REMARK   74  A    between atoms: _186  and  _187
REMARK   75  A    between atoms: _189  and  _191
REMARK   76  A    between atoms: _191  and  _192
REMARK   77  A    between atoms: _191  and  _194
REMARK   78  A    between atoms: _194  and  _195
REMARK   79  A    between atoms: _198  and  _200
REMARK   80  A    between atoms: _200  and  _201
REMARK   81  A    between atoms: _204  and  _206
REMARK   82  A    between atoms: _206  and  _207
REMARK   83  A    between atoms: _206  and  _209
REMARK   84  A    between atoms: _209  and  _210
REMARK   85  A    between atoms: _215  and  _217
REMARK   86  A    between atoms: _217  and  _218
REMARK   87  A    between atoms: _217  and  _220
REMARK   88  A    between atoms: _220  and  _221
REMARK   89  A    between atoms: _223  and  _225
REMARK   90  A    between atoms: _225  and  _226
REMARK   91  A    between atoms: _225  and  _228
REMARK   92  A    between atoms: _228  and  _229
REMARK   93  A    between atoms: _229  and  _230
REMARK   94  A    between atoms: _230  and  _231
REMARK   95  A    between atoms: _231  and  _232
REMARK   96  A    between atoms: _236  and  _238
REMARK   97  A    between atoms: _238  and  _239
REMARK   98  A    between atoms: _238  and  _241
REMARK   99  A    between atoms: _241  and  _242
REMARK  100  A    between atoms: _247  and  _249
REMARK  101  A    between atoms: _249  and  _250
REMARK  102  A    between atoms: _249  and  _252
REMARK  103  A    between atoms: _252  and  _253
REMARK  104  A    between atoms: _255  and  _257
REMARK  105  A    between atoms: _257  and  _258
REMARK  106  A    between atoms: _257  and  _260
REMARK  107  A    between atoms: _260  and  _261
REMARK  108  A    between atoms: _263  and  _265
REMARK  109  A    between atoms: _265  and  _266
REMARK  110  A    between atoms: _265  and  _268
REMARK  111  A    between atoms: _268  and  _269
REMARK  112  A    between atoms: _275  and  _277
REMARK  113  A    between atoms: _277  and  _278
REMARK  114  A    between atoms: _277  and  _280
REMARK  115  A    between atoms: _280  and  _281
REMARK  116  A    between atoms: _281  and  _282
REMARK  117  A    between atoms: _287  and  _289
REMARK  118  A    between atoms: _289  and  _290
REMARK  119  A    between atoms: _289  and  _292
REMARK  120  A    between atoms: _292  and  _293
REMARK  121  A    between atoms: _296  and  _298
REMARK  122  A    between atoms: _298  and  _299
REMARK  123  A    between atoms: _298  and  _301
REMARK  124  A    between atoms: _301  and  _302
REMARK  125  A    between atoms: _307  and  _309
REMARK  126  A    between atoms: _309  and  _310
REMARK  127  A    between atoms: _309  and  _312
REMARK  128  A    between atoms: _312  and  _313
REMARK  129  A    between atoms: _313  and  _314
REMARK  130  A    between atoms: _316  and  _318
REMARK  131  A    between atoms: _318  and  _319
REMARK  132  A    between atoms: _318  and  _321
REMARK  133  A    between atoms: _321  and  _322
REMARK  134  A    between atoms: _325  and  _327
REMARK  135  A    between atoms: _327  and  _328
REMARK  136  A    between atoms: _327  and  _330
REMARK  137  A    between atoms: _330  and  _331
REMARK  138  A    between atoms: _331  and  _332
REMARK  139  A    between atoms: _332  and  _333
REMARK  140  A    between atoms: _342  and  _344
REMARK  141  A    between atoms: _344  and  _345
REMARK  142  A    between atoms: _344  and  _347
REMARK  143  A    between atoms: _347  and  _348
REMARK  144  A    between atoms: _353  and  _354
REMARK  145  A    between atoms: _356  and  _358
REMARK  146  A    between atoms: _358  and  _359
REMARK  147  A    between atoms: _358  and  _365
REMARK  148  A    between atoms: _359  and  _360
REMARK  149  A    between atoms: _360  and  _361
REMARK  150  A    between atoms: _361  and  _362
REMARK  151  A    between atoms: _362  and  _363
REMARK  152  A    between atoms: _370  and  _372
REMARK  153  A    between atoms: _372  and  _373
REMARK  154  A    between atoms: _372  and  _375
REMARK  155  A    between atoms: _375  and  _376
REMARK  156  A    between atoms: _378  and  _380
REMARK  157  A    between atoms: _380  and  _381
REMARK  158  A    between atoms: _380  and  _383
REMARK  159  A    between atoms: _383  and  _384
REMARK  160  A    between atoms: _384  and  _385
REMARK  161  A    between atoms: _385  and  _386
REMARK  162  A    between atoms: _386  and  _387
REMARK  163  A    between atoms: _391  and  _393
REMARK  164  A    between atoms: _393  and  _394
REMARK  165  A    between atoms: _397  and  _399
REMARK  166  A    between atoms: _399  and  _400
REMARK  167  A    between atoms: _399  and  _402
REMARK  168  A    between atoms: _402  and  _403
REMARK  169  A    between atoms: _406  and  _408
REMARK  170  A    between atoms: _408  and  _409
REMARK  171  A    between atoms: _408  and  _411
REMARK  172  A    between atoms: _411  and  _412
REMARK  173  A    between atoms: _417  and  _419
REMARK  174  A    between atoms: _419  and  _420
REMARK  175  A    between atoms: _419  and  _422
REMARK  176  A    between atoms: _422  and  _423
REMARK  177  A    between atoms: _426  and  _428
REMARK  178  A    between atoms: _428  and  _429
REMARK  179  A    between atoms: _431  and  _433
REMARK  180  A    between atoms: _433  and  _434
REMARK  181  A    between atoms: _433  and  _436
REMARK  182  A    between atoms: _436  and  _437
REMARK  183  A    between atoms: _437  and  _438
REMARK  184  A    between atoms: _438  and  _439
REMARK  185  A    between atoms: _439  and  _440
REMARK  186  A    between atoms: _444  and  _446
REMARK  187  A    between atoms: _446  and  _447
REMARK  188  A    between atoms: _450  and  _452
REMARK  189  A    between atoms: _452  and  _453
REMARK  190  A    between atoms: _452  and  _455
REMARK  191  A    between atoms: _457  and  _459
REMARK  192  A    between atoms: _459  and  _460
REMARK  193  A    between atoms: _463  and  _465
REMARK  194  A    between atoms: _465  and  _466
REMARK  195  A    between atoms: _465  and  _468
REMARK  196  A    between atoms: _468  and  _469
REMARK  197  A    between atoms: _471  and  _473
REMARK  198  A    between atoms: _473  and  _474
REMARK  199  A    between atoms: _473  and  _476
REMARK  200  A    between atoms: _476  and  _477
REMARK  201  A    between atoms: _480  and  _482
REMARK  202  A    between atoms: _482  and  _483
REMARK  203  A    between atoms: _482  and  _485
REMARK  204  A    between atoms: _485  and  _486
REMARK  205  A    between atoms: _489  and  _491
REMARK  206  A    between atoms: _491  and  _492
REMARK  207  A    between atoms: _491  and  _494
REMARK  208  A    between atoms: _494  and  _495
REMARK  209  A    between atoms: _495  and  _496
REMARK  210  A    between atoms: _501  and  _503
REMARK  211  A    between atoms: _503  and  _504
REMARK  212  A    between atoms: _503  and  _506
REMARK  213  A    between atoms: _506  and  _507
REMARK  214  A    between atoms: _513  and  _515
REMARK  215  A    between atoms: _515  and  _516
REMARK  216  A    between atoms: _515  and  _518
REMARK  217  A    between atoms: _518  and  _519
REMARK  218  A    between atoms: _519  and  _520
REMARK  219  A    between atoms: _520  and  _521
REMARK  220  A    between atoms: _521  and  _522
REMARK  221  A    between atoms: _526  and  _528
REMARK  222  A    between atoms: _528  and  _529
REMARK  223  A    between atoms: _528  and  _531
REMARK  224  A    between atoms: _531  and  _532
REMARK  225  A    between atoms: _537  and  _539
REMARK  226  A    between atoms: _539  and  _540
REMARK  227  A    between atoms: _539  and  _542
REMARK  228  A    between atoms: _542  and  _543
REMARK  229  A    between atoms: _549  and  _551
REMARK  230  A    between atoms: _551  and  _552
REMARK  231  A    between atoms: _551  and  _554
REMARK  232  A    between atoms: _554  and  _555
REMARK  233  A    between atoms: _555  and  _556
REMARK  234  A    between atoms: _559  and  _561
REMARK  235  A    between atoms: _561  and  _562
REMARK  236  A    between atoms: _561  and  _564
REMARK  237  A    between atoms: _564  and  _565
REMARK  238  A    between atoms: _565  and  _566
REMARK  239  A    between atoms: _571  and  _573
REMARK  240  A    between atoms: _573  and  _574
REMARK  241  A    between atoms: _573  and  _576
REMARK  242  A    between atoms: _576  and  _577
REMARK  243  A    between atoms: _577  and  _578
REMARK  244  A    between atoms: _578  and  _579
REMARK  245  A    between atoms: _588  and  _590
REMARK  246  A    between atoms: _590  and  _591
REMARK                            x       y       z     vdW  Elec       q    Type
REMARK                         _______ _______ _______ _____ _____    ______ ____
ROOT
ATOM      1  CB  HIS A   1      29.082  41.011  46.577  0.00  0.00    +0.072 C 
ENDROOT
BRANCH   1   2
ATOM      2  CG  HIS A   1      29.262  40.500  45.192  0.00  0.00    +0.082 A 
ATOM      3  CD2 HIS A   1      28.516  39.631  44.469  0.00  0.00    +0.115 A 
ATOM      4  NE2 HIS A   1      29.114  39.514  43.239  0.00  0.00    -0.221 NA
ATOM      5  CE1 HIS A   1      30.172  40.309  43.195  0.00  0.00    +0.199 A 
ATOM      6  ND1 HIS A   1      30.287  40.914  44.367  0.00  0.00    -0.227 NA
ENDBRANCH   1   2
BRANCH   1   7
ATOM      7  CA  HIS A   1      28.012  42.119  46.675  0.00  0.00    +0.139 C 
BRANCH   7   8
ATOM      8  N   HIS A   1      27.813  42.446  48.098  0.00  0.00    -0.239 NA
ATOM      9  H   HIS A   1      27.340  41.742  48.700  0.00  0.00    +0.142 HD
ENDBRANCH   7   8
BRANCH   7  10
ATOM     10  C   HIS A   1      26.680  41.573  46.172  0.00  0.00    +0.224 C 
ATOM     11  O   HIS A   1      26.197  40.533  46.657  0.00  0.00    -0.287 OA
ENDBRANCH   7  10
ENDBRANCH   1   7
TORSDOF 4
REMARK  Name = ../refined-set-2016/2xpc/2xpc_pocket.pdb
REMARK  246 active torsions:
REMARK  status: ('A' for Active; 'I' for Inactive)
REMARK    1  A    between atoms: _1  and  _3
REMARK    2  A    between atoms: _3  and  _4
REMARK    3  A    between atoms: _3  and  _6
REMARK    4  A    between atoms: _6  and  _7
REMARK    5  A    between atoms: _10  and  _12
REMARK    6  A    between atoms: _12  and  _13
REMARK    7  A    between atoms: _12  and  _15
REMARK    8  A    between atoms: _15  and  _16
REMARK    9  A    between atoms: _19  and  _21
REMARK   10  A    between atoms: _21  and  _22
REMARK   11  A    between atoms: _24  and  _26
REMARK   12  A    between atoms: _26  and  _27
REMARK   13  A    between atoms: _26  and  _29
REMARK   14  A    between atoms: _29  and  _30
REMARK   15  A    between atoms: _33  and  _35
REMARK   16  A    between atoms: _35  and  _36
REMARK   17  A    between atoms: _38  and  _40
REMARK   18  A    between atoms: _40  and  _41
REMARK   19  A    between atoms: _40  and  _43
REMARK   20  A    between atoms: _43  and  _44
REMARK   21  A    between atoms: _47  and  _49
REMARK   22  A    between atoms: _49  and  _50
REMARK   23  A    between atoms: _49  and  _52
REMARK   24  A    between atoms: _52  and  _53
REMARK   25  A    between atoms: _56  and  _58
REMARK   26  A    between atoms: _58  and  _59
REMARK   27  A    between atoms: _61  and  _63
REMARK   28  A    between atoms: _63  and  _64
REMARK   29  A    between atoms: _63  and  _66
REMARK   30  A    between atoms: _66  and  _67
REMARK   31  A    between atoms: _67  and  _68
REMARK   32  A    between atoms: _70  and  _72
REMARK   33  A    between atoms: _72  and  _73
REMARK   34  A    between atoms: _72  and  _75
REMARK   35  A    between atoms: _75  and  _76
REMARK   36  A    between atoms: _79  and  _81
REMARK   37  A    between atoms: _81  and  _82
REMARK   38  A    between atoms: _81  and  _84
REMARK   39  A    between atoms: _84  and  _85
REMARK   40  A    between atoms: _88  and  _90
REMARK   41  A    between atoms: _90  and  _91
REMARK   42  A    between atoms: _90  and  _93
REMARK   43  A    between atoms: _93  and  _94
REMARK   44  A    between atoms: _94  and  _95
REMARK   45  A    between atoms: _95  and  _96
REMARK   46  A    between atoms: _106  and  _107
REMARK   47  A    between atoms: _113  and  _114
REMARK   48  A    between atoms: _119  and  _121
REMARK   49  A    between atoms: _121  and  _122
REMARK   50  A    between atoms: _121  and  _124
REMARK   51  A    between atoms: _124  and  _125
REMARK   52  A    between atoms: _130  and  _132
REMARK   53  A    between atoms: _132  and  _133
REMARK   54  A    between atoms: _135  and  _137
REMARK   55  A    between atoms: _137  and  _138
REMARK   56  A    between atoms: _137  and  _140
REMARK   57  A    between atoms: _140  and  _141
REMARK   58  A    between atoms: _143  and  _145
REMARK   59  A    between atoms: _145  and  _146
REMARK   60  A    between atoms: _145  and  _148
REMARK   61  A    between atoms: _148  and  _149
REMARK   62  A    between atoms: _152  and  _154
REMARK   63  A    between atoms: _154  and  _155
REMARK   64  A    between atoms: _154  and  _157
REMARK   65  A    between atoms: _157  and  _158
REMARK   66  A    between atoms: _163  and  _165
REMARK   67  A    between atoms: _165  and  _166
REMARK   68  A    between atoms: _169  and  _171
REMARK   69  A    between atoms: _171  and  _172
REMARK   70  A    between atoms: _171  and  _174
REMARK   71  A    between atoms: _174  and  _175
REMARK   72  A    between atoms: _178  and  _179
REMARK   73  A    between atoms: _184  and  _186
REMARK   74  A    between atoms: _186  and  _187
REMARK   75  A    between atoms: _189  and  _191
REMARK   76  A    between atoms: _191  and  _192
REMARK   77  A    between atoms: _191  and  _194
REMARK   78  A    between atoms: _194  and  _195
REMARK   79  A    between atoms: _198  and  _200
REMARK   80  A    between atoms: _200  and  _201
REMARK   81  A    between atoms: _204  and  _206
REMARK   82  A    between atoms: _206  and  _207
REMARK   83  A    between atoms: _206  and  _209
REMARK   84  A    between atoms: _209  and  _210
REMARK   85  A    between atoms: _215  and  _217
REMARK   86  A    between atoms: _217  and  _218
REMARK   87  A    between atoms: _217  and  _220
REMARK   88  A    between atoms: _220  and  _221
REMARK   89  A    between atoms: _223  and  _225
REMARK   90  A    between atoms: _225  and  _226
REMARK   91  A    between atoms: _225  and  _228
REMARK   92  A    between atoms: _228  and  _229
REMARK   93  A    between atoms: _229  and  _230
REMARK   94  A    between atoms: _230  and  _231
REMARK   95  A    between atoms: _231  and  _232
REMARK   96  A    between atoms: _236  and  _238
REMARK   97  A    between atoms: _238  and  _239
REMARK   98  A    between atoms: _238  and  _241
REMARK   99  A    between atoms: _241  and  _242
REMARK  100  A    between atoms: _247  and  _249
REMARK  101  A    between atoms: _249  and  _250
REMARK  102  A    between atoms: _249  and  _252
REMARK  103  A    between atoms: _252  and  _253
REMARK  104  A    between atoms: _255  and  _257
REMARK  105  A    between atoms: _257  and  _258
REMARK  106  A    between atoms: _257  and  _260
REMARK  107  A    between atoms: _260  and  _261
REMARK  108  A    between atoms: _263  and  _265
REMARK  109  A    between atoms: _265  and  _266
REMARK  110  A    between atoms: _265  and  _268
REMARK  111  A    between atoms: _268  and  _269
REMARK  112  A    between atoms: _275  and  _277
REMARK  113  A    between atoms: _277  and  _278
REMARK  114  A    between atoms: _277  and  _280
REMARK  115  A    between atoms: _280  and  _281
REMARK  116  A    between atoms: _281  and  _282
REMARK  117  A    between atoms: _287  and  _289
REMARK  118  A    between atoms: _289  and  _290
REMARK  119  A    between atoms: _289  and  _292
REMARK  120  A    between atoms: _292  and  _293
REMARK  121  A    between atoms: _296  and  _298
REMARK  122  A    between atoms: _298  and  _299
REMARK  123  A    between atoms: _298  and  _301
REMARK  124  A    between atoms: _301  and  _302
REMARK  125  A    between atoms: _307  and  _309
REMARK  126  A    between atoms: _309  and  _310
REMARK  127  A    between atoms: _309  and  _312
REMARK  128  A    between atoms: _312  and  _313
REMARK  129  A    between atoms: _313  and  _314
REMARK  130  A    between atoms: _316  and  _318
REMARK  131  A    between atoms: _318  and  _319
REMARK  132  A    between atoms: _318  and  _321
REMARK  133  A    between atoms: _321  and  _322
REMARK  134  A    between atoms: _325  and  _327
REMARK  135  A    between atoms: _327  and  _328
REMARK  136  A    between atoms: _327  and  _330
REMARK  137  A    between atoms: _330  and  _331
REMARK  138  A    between atoms: _331  and  _332
REMARK  139  A    between atoms: _332  and  _333
REMARK  140  A    between atoms: _342  and  _344
REMARK  141  A    between atoms: _344  and  _345
REMARK  142  A    between atoms: _344  and  _347
REMARK  143  A    between atoms: _347  and  _348
REMARK  144  A    between atoms: _353  and  _354
REMARK  145  A    between atoms: _356  and  _358
REMARK  146  A    between atoms: _358  and  _359
REMARK  147  A    between atoms: _358  and  _365
REMARK  148  A    between atoms: _359  and  _360
REMARK  149  A    between atoms: _360  and  _361
REMARK  150  A    between atoms: _361  and  _362
REMARK  151  A    between atoms: _362  and  _363
REMARK  152  A    between atoms: _370  and  _372
REMARK  153  A    between atoms: _372  and  _373
REMARK  154  A    between atoms: _372  and  _375
REMARK  155  A    between atoms: _375  and  _376
REMARK  156  A    between atoms: _378  and  _380
REMARK  157  A    between atoms: _380  and  _381
REMARK  158  A    between atoms: _380  and  _383
REMARK  159  A    between atoms: _383  and  _384
REMARK  160  A    between atoms: _384  and  _385
REMARK  161  A    between atoms: _385  and  _386
REMARK  162  A    between atoms: _386  and  _387
REMARK  163  A    between atoms: _391  and  _393
REMARK  164  A    between atoms: _393  and  _394
REMARK  165  A    between atoms: _397  and  _399
REMARK  166  A    between atoms: _399  and  _400
REMARK  167  A    between atoms: _399  and  _402
REMARK  168  A    between atoms: _402  and  _403
REMARK  169  A    between atoms: _406  and  _408
REMARK  170  A    between atoms: _408  and  _409
REMARK  171  A    between atoms: _408  and  _411
REMARK  172  A    between atoms: _411  and  _412
REMARK  173  A    between atoms: _417  and  _419
REMARK  174  A    between atoms: _419  and  _420
REMARK  175  A    between atoms: _419  and  _422
REMARK  176  A    between atoms: _422  and  _423
REMARK  177  A    between atoms: _426  and  _428
REMARK  178  A    between atoms: _428  and  _429
REMARK  179  A    between atoms: _431  and  _433
REMARK  180  A    between atoms: _433  and  _434
REMARK  181  A    between atoms: _433  and  _436
REMARK  182  A    between atoms: _436  and  _437
REMARK  183  A    between atoms: _437  and  _438
REMARK  184  A    between atoms: _438  and  _439
REMARK  185  A    between atoms: _439  and  _440
REMARK  186  A    between atoms: _444  and  _446
REMARK  187  A    between atoms: _446  and  _447
REMARK  188  A    between atoms: _450  and  _452
REMARK  189  A    between atoms: _452  and  _453
REMARK  190  A    between atoms: _452  and  _455
REMARK  191  A    between atoms: _457  and  _459
REMARK  192  A    between atoms: _459  and  _460
REMARK  193  A    between atoms: _463  and  _465
REMARK  194  A    between atoms: _465  and  _466
REMARK  195  A    between atoms: _465  and  _468
REMARK  196  A    between atoms: _468  and  _469
REMARK  197  A    between atoms: _471  and  _473
REMARK  198  A    between atoms: _473  and  _474
REMARK  199  A    between atoms: _473  and  _476
REMARK  200  A    between atoms: _476  and  _477
REMARK  201  A    between atoms: _480  and  _482
REMARK  202  A    between atoms: _482  and  _483
REMARK  203  A    between atoms: _482  and  _485
REMARK  204  A    between atoms: _485  and  _486
REMARK  205  A    between atoms: _489  and  _491
REMARK  206  A    between atoms: _491  and  _492
REMARK  207  A    between atoms: _491  and  _494
REMARK  208  A    between atoms: _494  and  _495
REMARK  209  A    between atoms: _495  and  _496
REMARK  210  A    between atoms: _501  and  _503
REMARK  211  A    between atoms: _503  and  _504
REMARK  212  A    between atoms: _503  and  _506
REMARK  213  A    between atoms: _506  and  _507
REMARK  214  A    between atoms: _513  and  _515
REMARK  215  A    between atoms: _515  and  _516
REMARK  216  A    between atoms: _515  and  _518
REMARK  217  A    between atoms: _518  and  _519
REMARK  218  A    between atoms: _519  and  _520
REMARK  219  A    between atoms: _520  and  _521
REMARK  220  A    between atoms: _521  and  _522
REMARK  221  A    between atoms: _526  and  _528
REMARK  222  A    between atoms: _528  and  _529
REMARK  223  A    between atoms: _528  and  _531
REMARK  224  A    between atoms: _531  and  _532
REMARK  225  A    between atoms: _537  and  _539
REMARK  226  A    between atoms: _539  and  _540
REMARK  227  A    between atoms: _539  and  _542
REMARK  228  A    between atoms: _542  and  _543
REMARK  229  A    between atoms: _549  and  _551
REMARK  230  A    between atoms: _551  and  _552
REMARK  231  A    between atoms: _551  and  _554
REMARK  232  A    between atoms: _554  and  _555
REMARK  233  A    between atoms: _555  and  _556
REMARK  234  A    between atoms: _559  and  _561
REMARK  235  A    between atoms: _561  and  _562
REMARK  236  A    between atoms: _561  and  _564
REMARK  237  A    between atoms: _564  and  _565
REMARK  238  A    between atoms: _565  and  _566
REMARK  239  A    between atoms: _571  and  _573
REMARK  240  A    between atoms: _573  and  _574
REMARK  241  A    between atoms: _573  and  _576
REMARK  242  A    between atoms: _576  and  _577
REMARK  243  A    between atoms: _577  and  _578
REMARK  244  A    between atoms: _578  and  _579
REMARK  245  A    between atoms: _588  and  _590
REMARK  246  A    between atoms: _590  and  _591
REMARK                            x       y       z     vdW  Elec       q    Type
REMARK                         _______ _______ _______ _____ _____    ______ ____
ROOT
ATOM      1  CA  LEU A   3      27.687  35.243  44.005  0.00  0.00    +0.149 C 
ENDROOT
BRANCH   1   4
ATOM      2  C   SER A   2      26.292  36.874  42.885  0.00  0.00    +0.243 C 
ATOM      3  O   SER A   2      26.253  37.576  43.894  0.00  0.00    -0.273 OA
ATOM      4  N   LEU A   3      26.829  35.661  42.883  0.00  0.00    -0.297 N 
ATOM      5  H   LEU A   3      26.645  35.009  42.094  0.00  0.00    +0.150 HD
BRANCH   2   6
ATOM      6  CA  SER A   2      25.631  37.369  41.597  0.00  0.00    +0.178 C 
BRANCH   6   8
ATOM      7  C   GLY A   1      24.161  39.277  41.031  0.00  0.00    +0.240 C 
ATOM      8  N   SER A   2      24.912  38.609  41.911  0.00  0.00    -0.295 N 
ATOM      9  H   SER A   2      24.992  38.990  42.875  0.00  0.00    +0.150 HD
ATOM     10  O   GLY A   1      23.961  38.881  39.894  0.00  0.00    -0.274 OA
BRANCH   7  11
ATOM     11  CA  GLY A   1      23.500  40.561  41.497  0.00  0.00    +0.169 C 
BRANCH  11  12
ATOM     12  N   GLY A   1      23.679  40.884  42.898  0.00  0.00    -0.236 NA
ATOM     13  H   GLY A   1      22.985  40.535  43.589  0.00  0.00    +0.142 HD
ENDBRANCH  11  12
ENDBRANCH   7  11
ENDBRANCH   6   8
BRANCH   6  14
ATOM     14  CB  SER A   2      26.689  37.572  40.497  0.00  0.00    +0.166 C 
BRANCH  14  15
ATOM     15  OG  SER A   2      27.655  38.553  40.876  0.00  0.00    -0.380 OA
ATOM     16  H   SER A   2      27.200  39.417  41.038  0.00  0.00    +0.211 HD
ENDBRANCH  14  15
ENDBRANCH   6  14
ENDBRANCH   2   6
ENDBRANCH   1   4
BRANCH   1  17
ATOM     17  C   LEU A   3      29.102  35.735  43.715  0.00  0.00    +0.241 C 
ATOM     18  N   ASN A   4      29.888  35.910  44.780  0.00  0.00    -0.298 N 
ATOM     19  H   ASN A   4      29.488  35.760  45.728  0.00  0.00    +0.150 HD
ATOM     20  O   LEU A   3      29.443  35.994  42.555  0.00  0.00    -0.273 OA
BRANCH  18  21
ATOM     21  CA  ASN A   4      31.285  36.303  44.662  0.00  0.00    +0.146 C 
BRANCH  21  22
ATOM     22  C   ASN A   4      32.145  35.148  45.204  0.00  0.00    +0.227 C 
ATOM     23  O   ASN A   4      32.174  34.916  46.399  0.00  0.00    -0.286 OA
ENDBRANCH  21  22
BRANCH  21  24
ATOM     24  CB  ASN A   4      31.508  37.612  45.442  0.00  0.00    +0.112 C 
BRANCH  24  25
ATOM     25  CG  ASN A   4      32.917  38.135  45.307  0.00  0.00    +0.222 C 
ATOM     26  ND2 ASN A   4      33.086  39.465  45.269  0.00  0.00    -0.329 N 
ATOM     27 HD21 ASN A   4      32.264  40.096  45.357  0.00  0.00    +0.145 HD
ATOM     28 HD22 ASN A   4      34.039  39.865  45.152  0.00  0.00    +0.145 HD
ATOM     29  OD1 ASN A   4      33.851  37.351  45.208  0.00  0.00    -0.275 OA
ENDBRANCH  24  25
ENDBRANCH  21  24
ENDBRANCH  18  21
ENDBRANCH   1  17
BRANCH   1  30
ATOM     30  CB  LEU A   3      27.660  33.723  44.189  0.00  0.00    +0.029 C 
BRANCH  30  31
ATOM     31  CG  LEU A   3      26.263  33.150  44.567  0.00  0.00    +0.002 C 
ATOM     32  CD2 LEU A   3      25.680  33.912  45.759  0.00  0.00    +0.000 C 
ATOM     33  CD1 LEU A   3      26.387  31.687  44.960  0.00  0.00    +0.000 C 
ENDBRANCH  30  31
ENDBRANCH   1  30
TORSDOF 14
REMARK  Name = ../refined-set-2016/2xpc/2xpc_pocket.pdb
REMARK  246 active torsions:
REMARK  status: ('A' for Active; 'I' for Inactive)
REMARK    1  A    between atoms: _1  and  _3
REMARK    2  A    between atoms: _3  and  _4
REMARK    3  A    between atoms: _3  and  _6
REMARK    4  A    between atoms: _6  and  _7
REMARK    5  A    between atoms: _10  and  _12
REMARK    6  A    between atoms: _12  and  _13
REMARK    7  A    between atoms: _12  and  _15
REMARK    8  A    between atoms: _15  and  _16
REMARK    9  A    between atoms: _19  and  _21
REMARK   10  A    between atoms: _21  and  _22
REMARK   11  A    between atoms: _24  and  _26
REMARK   12  A    between atoms: _26  and  _27
REMARK   13  A    between atoms: _26  and  _29
REMARK   14  A    between atoms: _29  and  _30
REMARK   15  A    between atoms: _33  and  _35
REMARK   16  A    between atoms: _35  and  _36
REMARK   17  A    between atoms: _38  and  _40
REMARK   18  A    between atoms: _40  and  _41
REMARK   19  A    between atoms: _40  and  _43
REMARK   20  A    between atoms: _43  and  _44
REMARK   21  A    between atoms: _47  and  _49
REMARK   22  A    between atoms: _49  and  _50
REMARK   23  A    between atoms: _49  and  _52
REMARK   24  A    between atoms: _52  and  _53
REMARK   25  A    between atoms: _56  and  _58
REMARK   26  A    between atoms: _58  and  _59
REMARK   27  A    between atoms: _61  and  _63
REMARK   28  A    between atoms: _63  and  _64
REMARK   29  A    between atoms: _63  and  _66
REMARK   30  A    between atoms: _66  and  _67
REMARK   31  A    between atoms: _67  and  _68
REMARK   32  A    between atoms: _70  and  _72
REMARK   33  A    between atoms: _72  and  _73
REMARK   34  A    between atoms: _72  and  _75
REMARK   35  A    between atoms: _75  and  _76
REMARK   36  A    between atoms: _79  and  _81
REMARK   37  A    between atoms: _81  and  _82
REMARK   38  A    between atoms: _81  and  _84
REMARK   39  A    between atoms: _84  and  _85
REMARK   40  A    between atoms: _88  and  _90
REMARK   41  A    between atoms: _90  and  _91
REMARK   42  A    between atoms: _90  and  _93
REMARK   43  A    between atoms: _93  and  _94
REMARK   44  A    between atoms: _94  and  _95
REMARK   45  A    between atoms: _95  and  _96
REMARK   46  A    between atoms: _106  and  _107
REMARK   47  A    between atoms: _113  and  _114
REMARK   48  A    between atoms: _119  and  _121
REMARK   49  A    between atoms: _121  and  _122
REMARK   50  A    between atoms: _121  and  _124
REMARK   51  A    between atoms: _124  and  _125
REMARK   52  A    between atoms: _130  and  _132
REMARK   53  A    between atoms: _132  and  _133
REMARK   54  A    between atoms: _135  and  _137
REMARK   55  A    between atoms: _137  and  _138
REMARK   56  A    between atoms: _137  and  _140
REMARK   57  A    between atoms: _140  and  _141
REMARK   58  A    between atoms: _143  and  _145
REMARK   59  A    between atoms: _145  and  _146
REMARK   60  A    between atoms: _145  and  _148
REMARK   61  A    between atoms: _148  and  _149
REMARK   62  A    between atoms: _152  and  _154
REMARK   63  A    between atoms: _154  and  _155
REMARK   64  A    between atoms: _154  and  _157
REMARK   65  A    between atoms: _157  and  _158
REMARK   66  A    between atoms: _163  and  _165
REMARK   67  A    between atoms: _165  and  _166
REMARK   68  A    between atoms: _169  and  _171
REMARK   69  A    between atoms: _171  and  _172
REMARK   70  A    between atoms: _171  and  _174
REMARK   71  A    between atoms: _174  and  _175
REMARK   72  A    between atoms: _178  and  _179
REMARK   73  A    between atoms: _184  and  _186
REMARK   74  A    between atoms: _186  and  _187
REMARK   75  A    between atoms: _189  and  _191
REMARK   76  A    between atoms: _191  and  _192
REMARK   77  A    between atoms: _191  and  _194
REMARK   78  A    between atoms: _194  and  _195
REMARK   79  A    between atoms: _198  and  _200
REMARK   80  A    between atoms: _200  and  _201
REMARK   81  A    between atoms: _204  and  _206
REMARK   82  A    between atoms: _206  and  _207
REMARK   83  A    between atoms: _206  and  _209
REMARK   84  A    between atoms: _209  and  _210
REMARK   85  A    between atoms: _215  and  _217
REMARK   86  A    between atoms: _217  and  _218
REMARK   87  A    between atoms: _217  and  _220
REMARK   88  A    between atoms: _220  and  _221
REMARK   89  A    between atoms: _223  and  _225
REMARK   90  A    between atoms: _225  and  _226
REMARK   91  A    between atoms: _225  and  _228
REMARK   92  A    between atoms: _228  and  _229
REMARK   93  A    between atoms: _229  and  _230
REMARK   94  A    between atoms: _230  and  _231
REMARK   95  A    between atoms: _231  and  _232
REMARK   96  A    between atoms: _236  and  _238
REMARK   97  A    between atoms: _238  and  _239
REMARK   98  A    between atoms: _238  and  _241
REMARK   99  A    between atoms: _241  and  _242
REMARK  100  A    between atoms: _247  and  _249
REMARK  101  A    between atoms: _249  and  _250
REMARK  102  A    between atoms: _249  and  _252
REMARK  103  A    between atoms: _252  and  _253
REMARK  104  A    between atoms: _255  and  _257
REMARK  105  A    between atoms: _257  and  _258
REMARK  106  A    between atoms: _257  and  _260
REMARK  107  A    between atoms: _260  and  _261
REMARK  108  A    between atoms: _263  and  _265
REMARK  109  A    between atoms: _265  and  _266
REMARK  110  A    between atoms: _265  and  _268
REMARK  111  A    between atoms: _268  and  _269
REMARK  112  A    between atoms: _275  and  _277
REMARK  113  A    between atoms: _277  and  _278
REMARK  114  A    between atoms: _277  and  _280
REMARK  115  A    between atoms: _280  and  _281
REMARK  116  A    between atoms: _281  and  _282
REMARK  117  A    between atoms: _287  and  _289
REMARK  118  A    between atoms: _289  and  _290
REMARK  119  A    between atoms: _289  and  _292
REMARK  120  A    between atoms: _292  and  _293
REMARK  121  A    between atoms: _296  and  _298
REMARK  122  A    between atoms: _298  and  _299
REMARK  123  A    between atoms: _298  and  _301
REMARK  124  A    between atoms: _301  and  _302
REMARK  125  A    between atoms: _307  and  _309
REMARK  126  A    between atoms: _309  and  _310
REMARK  127  A    between atoms: _309  and  _312
REMARK  128  A    between atoms: _312  and  _313
REMARK  129  A    between atoms: _313  and  _314
REMARK  130  A    between atoms: _316  and  _318
REMARK  131  A    between atoms: _318  and  _319
REMARK  132  A    between atoms: _318  and  _321
REMARK  133  A    between atoms: _321  and  _322
REMARK  134  A    between atoms: _325  and  _327
REMARK  135  A    between atoms: _327  and  _328
REMARK  136  A    between atoms: _327  and  _330
REMARK  137  A    between atoms: _330  and  _331
REMARK  138  A    between atoms: _331  and  _332
REMARK  139  A    between atoms: _332  and  _333
REMARK  140  A    between atoms: _342  and  _344
REMARK  141  A    between atoms: _344  and  _345
REMARK  142  A    between atoms: _344  and  _347
REMARK  143  A    between atoms: _347  and  _348
REMARK  144  A    between atoms: _353  and  _354
REMARK  145  A    between atoms: _356  and  _358
REMARK  146  A    between atoms: _358  and  _359
REMARK  147  A    between atoms: _358  and  _365
REMARK  148  A    between atoms: _359  and  _360
REMARK  149  A    between atoms: _360  and  _361
REMARK  150  A    between atoms: _361  and  _362
REMARK  151  A    between atoms: _362  and  _363
REMARK  152  A    between atoms: _370  and  _372
REMARK  153  A    between atoms: _372  and  _373
REMARK  154  A    between atoms: _372  and  _375
REMARK  155  A    between atoms: _375  and  _376
REMARK  156  A    between atoms: _378  and  _380
REMARK  157  A    between atoms: _380  and  _381
REMARK  158  A    between atoms: _380  and  _383
REMARK  159  A    between atoms: _383  and  _384
REMARK  160  A    between atoms: _384  and  _385
REMARK  161  A    between atoms: _385  and  _386
REMARK  162  A    between atoms: _386  and  _387
REMARK  163  A    between atoms: _391  and  _393
REMARK  164  A    between atoms: _393  and  _394
REMARK  165  A    between atoms: _397  and  _399
REMARK  166  A    between atoms: _399  and  _400
REMARK  167  A    between atoms: _399  and  _402
REMARK  168  A    between atoms: _402  and  _403
REMARK  169  A    between atoms: _406  and  _408
REMARK  170  A    between atoms: _408  and  _409
REMARK  171  A    between atoms: _408  and  _411
REMARK  172  A    between atoms: _411  and  _412
REMARK  173  A    between atoms: _417  and  _419
REMARK  174  A    between atoms: _419  and  _420
REMARK  175  A    between atoms: _419  and  _422
REMARK  176  A    between atoms: _422  and  _423
REMARK  177  A    between atoms: _426  and  _428
REMARK  178  A    between atoms: _428  and  _429
REMARK  179  A    between atoms: _431  and  _433
REMARK  180  A    between atoms: _433  and  _434
REMARK  181  A    between atoms: _433  and  _436
REMARK  182  A    between atoms: _436  and  _437
REMARK  183  A    between atoms: _437  and  _438
REMARK  184  A    between atoms: _438  and  _439
REMARK  185  A    between atoms: _439  and  _440
REMARK  186  A    between atoms: _444  and  _446
REMARK  187  A    between atoms: _446  and  _447
REMARK  188  A    between atoms: _450  and  _452
REMARK  189  A    between atoms: _452  and  _453
REMARK  190  A    between atoms: _452  and  _455
REMARK  191  A    between atoms: _457  and  _459
REMARK  192  A    between atoms: _459  and  _460
REMARK  193  A    between atoms: _463  and  _465
REMARK  194  A    between atoms: _465  and  _466
REMARK  195  A    between atoms: _465  and  _468
REMARK  196  A    between atoms: _468  and  _469
REMARK  197  A    between atoms: _471  and  _473
REMARK  198  A    between atoms: _473  and  _474
REMARK  199  A    between atoms: _473  and  _476
REMARK  200  A    between atoms: _476  and  _477
REMARK  201  A    between atoms: _480  and  _482
REMARK  202  A    between atoms: _482  and  _483
REMARK  203  A    between atoms: _482  and  _485
REMARK  204  A    between atoms: _485  and  _486
REMARK  205  A    between atoms: _489  and  _491
REMARK  206  A    between atoms: _491  and  _492
REMARK  207  A    between atoms: _491  and  _494
REMARK  208  A    between atoms: _494  and  _495
REMARK  209  A    between atoms: _495  and  _496
REMARK  210  A    between atoms: _501  and  _503
REMARK  211  A    between atoms: _503  and  _504
REMARK  212  A    between atoms: _503  and  _506
REMARK  213  A    between atoms: _506  and  _507
REMARK  214  A    between atoms: _513  and  _515
REMARK  215  A    between atoms: _515  and  _516
REMARK  216  A    between atoms: _515  and  _518
REMARK  217  A    between atoms: _518  and  _519
REMARK  218  A    between atoms: _519  and  _520
REMARK  219  A    between atoms: _520  and  _521
REMARK  220  A    between atoms: _521  and  _522
REMARK  221  A    between atoms: _526  and  _528
REMARK  222  A    between atoms: _528  and  _529
REMARK  223  A    between atoms: _528  and  _531
REMARK  224  A    between atoms: _531  and  _532
REMARK  225  A    between atoms: _537  and  _539
REMARK  226  A    between atoms: _539  and  _540
REMARK  227  A    between atoms: _539  and  _542
REMARK  228  A    between atoms: _542  and  _543
REMARK  229  A    between atoms: _549  and  _551
REMARK  230  A    between atoms: _551  and  _552
REMARK  231  A    between atoms: _551  and  _554
REMARK  232  A    between atoms: _554  and  _555
REMARK  233  A    between atoms: _555  and  _556
REMARK  234  A    between atoms: _559  and  _561
REMARK  235  A    between atoms: _561  and  _562
REMARK  236  A    between atoms: _561  and  _564
REMARK  237  A    between atoms: _564  and  _565
REMARK  238  A    between atoms: _565  and  _566
REMARK  239  A    between atoms: _571  and  _573
REMARK  240  A    between atoms: _573  and  _574
REMARK  241  A    between atoms: _573  and  _576
REMARK  242  A    between atoms: _576  and  _577
REMARK  243  A    between atoms: _577  and  _578
REMARK  244  A    between atoms: _578  and  _579
REMARK  245  A    between atoms: _588  and  _590
REMARK  246  A    between atoms: _590  and  _591
REMARK                            x       y       z     vdW  Elec       q    Type
REMARK                         _______ _______ _______ _____ _____    ______ ____
ROOT
ATOM      1  C   PRO A   3      17.249  28.476  51.227  0.00  0.00    +0.241 C 
ATOM      2  N   GLY A   4      17.194  29.719  50.743  0.00  0.00    -0.295 N 
ATOM      3  H   GLY A   4      17.407  30.514  51.379  0.00  0.00    +0.150 HD
ATOM      4  O   PRO A   3      17.018  27.486  50.552  0.00  0.00    -0.273 OA
ENDROOT
BRANCH   1  10
ATOM      5  C   SER A   2      19.354  29.960  52.783  0.00  0.00    +0.246 C 
ATOM      6  N   PRO A   3      18.179  29.559  53.250  0.00  0.00    -0.272 N 
ATOM      7  CD  PRO A   3      17.425  30.080  54.413  0.00  0.00    +0.094 C 
ATOM      8  CG  PRO A   3      16.049  29.523  54.169  0.00  0.00    +0.024 C 
ATOM      9  CB  PRO A   3      16.348  28.128  53.561  0.00  0.00    +0.031 C 
ATOM     10  CA  PRO A   3      17.612  28.332  52.709  0.00  0.00    +0.152 C 
ATOM     11  O   SER A   2      19.946  29.347  51.888  0.00  0.00    -0.273 OA
BRANCH   5  12
ATOM     12  CA  SER A   2      19.901  31.302  53.276  0.00  0.00    +0.178 C 
BRANCH  12  15
ATOM     13  C   ALA A   1      22.034  30.331  53.848  0.00  0.00    +0.238 C 
ATOM     14  O   ALA A   1      21.476  29.497  54.566  0.00  0.00    -0.274 OA
ATOM     15  N   SER A   2      21.351  31.277  53.205  0.00  0.00    -0.295 N 
ATOM     16  H   SER A   2      21.857  31.998  52.652  0.00  0.00    +0.150 HD
BRANCH  13  17
ATOM     17  CA  ALA A   1      23.524  30.264  53.569  0.00  0.00    +0.145 C 
ATOM     18  CB  ALA A   1      23.851  28.975  52.792  0.00  0.00    +0.028 C 
BRANCH  17  19
ATOM     19  N   ALA A   1      24.278  30.304  54.825  0.00  0.00    -0.238 NA
ATOM     20  H   ALA A   1      24.361  29.446  55.407  0.00  0.00    +0.142 HD
ENDBRANCH  17  19
ENDBRANCH  13  17
ENDBRANCH  12  15
BRANCH  12  21
ATOM     21  CB  SER A   2      19.374  32.355  52.273  0.00  0.00    +0.166 C 
BRANCH  21  22
ATOM     22  OG  SER A   2      17.976  32.194  52.031  0.00  0.00    -0.380 OA
ATOM     23  H   SER A   2      17.481  32.296  52.882  0.00  0.00    +0.211 HD
ENDBRANCH  21  22
ENDBRANCH  12  21
ENDBRANCH   5  12
ENDBRANCH   1  10
BRANCH   2  24
ATOM     24  CA  GLY A   4      16.845  30.005  49.352  0.00  0.00    +0.176 C 
BRANCH  24  25
ATOM     25  C   GLY A   4      17.948  29.763  48.322  0.00  0.00    +0.243 C 
ATOM     26  N   ILE A   5      19.137  29.352  48.769  0.00  0.00    -0.297 N 
ATOM     27  H   ILE A   5      19.295  29.285  49.795  0.00  0.00    +0.150 HD
ATOM     28  O   GLY A   4      17.668  29.879  47.132  0.00  0.00    -0.273 OA
BRANCH  26  29
ATOM     29  CA  ILE A   5      20.236  28.989  47.847  0.00  0.00    +0.149 C 
BRANCH  29  30
ATOM     30  C   ILE A   5      20.533  27.502  48.043  0.00  0.00    +0.241 C 
ATOM     31  O   ILE A   5      20.647  27.039  49.185  0.00  0.00    -0.273 OA
ATOM     32  N   ALA A   6      20.649  26.741  46.952  0.00  0.00    -0.298 N 
ATOM     33  H   ALA A   6      20.527  27.160  46.008  0.00  0.00    +0.150 HD
BRANCH  32  34
ATOM     34  CA  ALA A   6      20.949  25.309  47.089  0.00  0.00    +0.137 C 
ATOM     35  CB  ALA A   6      20.721  24.594  45.751  0.00  0.00    +0.030 C 
BRANCH  34  36
ATOM     36  C   ALA A   6      22.375  25.048  47.555  0.00  0.00    +0.227 C 
ATOM     37  O   ALA A   6      23.315  25.622  46.992  0.00  0.00    -0.286 OA
ENDBRANCH  34  36
ENDBRANCH  32  34
ENDBRANCH  29  30
BRANCH  29  38
ATOM     38  CB  ILE A   5      21.512  29.897  47.993  0.00  0.00    +0.027 C 
ATOM     39  CG2 ILE A   5      22.142  29.800  49.350  0.00  0.00    +0.002 C 
BRANCH  38  40
ATOM     40  CG1 ILE A   5      22.603  29.574  46.956  0.00  0.00    +0.002 C 
ATOM     41  CD1 ILE A   5      22.788  30.678  45.948  0.00  0.00    +0.000 C 
ENDBRANCH  38  40
ENDBRANCH  29  38
ENDBRANCH  26  29
ENDBRANCH  24  25
ENDBRANCH   2  24
TORSDOF 15
REMARK  Name = ../refined-set-2016/2xpc/2xpc_pocket.pdb
REMARK  246 active torsions:
REMARK  status: ('A' for Active; 'I' for Inactive)
REMARK    1  A    between atoms: _1  and  _3
REMARK    2  A    between atoms: _3  and  _4
REMARK    3  A    between atoms: _3  and  _6
REMARK    4  A    between atoms: _6  and  _7
REMARK    5  A    between atoms: _10  and  _12
REMARK    6  A    between atoms: _12  and  _13
REMARK    7  A    between atoms: _12  and  _15
REMARK    8  A    between atoms: _15  and  _16
REMARK    9  A    between atoms: _19  and  _21
REMARK   10  A    between atoms: _21  and  _22
REMARK   11  A    between atoms: _24  and  _26
REMARK   12  A    between atoms: _26  and  _27
REMARK   13  A    between atoms: _26  and  _29
REMARK   14  A    between atoms: _29  and  _30
REMARK   15  A    between atoms: _33  and  _35
REMARK   16  A    between atoms: _35  and  _36
REMARK   17  A    between atoms: _38  and  _40
REMARK   18  A    between atoms: _40  and  _41
REMARK   19  A    between atoms: _40  and  _43
REMARK   20  A    between atoms: _43  and  _44
REMARK   21  A    between atoms: _47  and  _49
REMARK   22  A    between atoms: _49  and  _50
REMARK   23  A    between atoms: _49  and  _52
REMARK   24  A    between atoms: _52  and  _53
REMARK   25  A    between atoms: _56  and  _58
REMARK   26  A    between atoms: _58  and  _59
REMARK   27  A    between atoms: _61  and  _63
REMARK   28  A    between atoms: _63  and  _64
REMARK   29  A    between atoms: _63  and  _66
REMARK   30  A    between atoms: _66  and  _67
REMARK   31  A    between atoms: _67  and  _68
REMARK   32  A    between atoms: _70  and  _72
REMARK   33  A    between atoms: _72  and  _73
REMARK   34  A    between atoms: _72  and  _75
REMARK   35  A    between atoms: _75  and  _76
REMARK   36  A    between atoms: _79  and  _81
REMARK   37  A    between atoms: _81  and  _82
REMARK   38  A    between atoms: _81  and  _84
REMARK   39  A    between atoms: _84  and  _85
REMARK   40  A    between atoms: _88  and  _90
REMARK   41  A    between atoms: _90  and  _91
REMARK   42  A    between atoms: _90  and  _93
REMARK   43  A    between atoms: _93  and  _94
REMARK   44  A    between atoms: _94  and  _95
REMARK   45  A    between atoms: _95  and  _96
REMARK   46  A    between atoms: _106  and  _107
REMARK   47  A    between atoms: _113  and  _114
REMARK   48  A    between atoms: _119  and  _121
REMARK   49  A    between atoms: _121  and  _122
REMARK   50  A    between atoms: _121  and  _124
REMARK   51  A    between atoms: _124  and  _125
REMARK   52  A    between atoms: _130  and  _132
REMARK   53  A    between atoms: _132  and  _133
REMARK   54  A    between atoms: _135  and  _137
REMARK   55  A    between atoms: _137  and  _138
REMARK   56  A    between atoms: _137  and  _140
REMARK   57  A    between atoms: _140  and  _141
REMARK   58  A    between atoms: _143  and  _145
REMARK   59  A    between atoms: _145  and  _146
REMARK   60  A    between atoms: _145  and  _148
REMARK   61  A    between atoms: _148  and  _149
REMARK   62  A    between atoms: _152  and  _154
REMARK   63  A    between atoms: _154  and  _155
REMARK   64  A    between atoms: _154  and  _157
REMARK   65  A    between atoms: _157  and  _158
REMARK   66  A    between atoms: _163  and  _165
REMARK   67  A    between atoms: _165  and  _166
REMARK   68  A    between atoms: _169  and  _171
REMARK   69  A    between atoms: _171  and  _172
REMARK   70  A    between atoms: _171  and  _174
REMARK   71  A    between atoms: _174  and  _175
REMARK   72  A    between atoms: _178  and  _179
REMARK   73  A    between atoms: _184  and  _186
REMARK   74  A    between atoms: _186  and  _187
REMARK   75  A    between atoms: _189  and  _191
REMARK   76  A    between atoms: _191  and  _192
REMARK   77  A    between atoms: _191  and  _194
REMARK   78  A    between atoms: _194  and  _195
REMARK   79  A    between atoms: _198  and  _200
REMARK   80  A    between atoms: _200  and  _201
REMARK   81  A    between atoms: _204  and  _206
REMARK   82  A    between atoms: _206  and  _207
REMARK   83  A    between atoms: _206  and  _209
REMARK   84  A    between atoms: _209  and  _210
REMARK   85  A    between atoms: _215  and  _217
REMARK   86  A    between atoms: _217  and  _218
REMARK   87  A    between atoms: _217  and  _220
REMARK   88  A    between atoms: _220  and  _221
REMARK   89  A    between atoms: _223  and  _225
REMARK   90  A    between atoms: _225  and  _226
REMARK   91  A    between atoms: _225  and  _228
REMARK   92  A    between atoms: _228  and  _229
REMARK   93  A    between atoms: _229  and  _230
REMARK   94  A    between atoms: _230  and  _231
REMARK   95  A    between atoms: _231  and  _232
REMARK   96  A    between atoms: _236  and  _238
REMARK   97  A    between atoms: _238  and  _239
REMARK   98  A    between atoms: _238  and  _241
REMARK   99  A    between atoms: _241  and  _242
REMARK  100  A    between atoms: _247  and  _249
REMARK  101  A    between atoms: _249  and  _250
REMARK  102  A    between atoms: _249  and  _252
REMARK  103  A    between atoms: _252  and  _253
REMARK  104  A    between atoms: _255  and  _257
REMARK  105  A    between atoms: _257  and  _258
REMARK  106  A    between atoms: _257  and  _260
REMARK  107  A    between atoms: _260  and  _261
REMARK  108  A    between atoms: _263  and  _265
REMARK  109  A    between atoms: _265  and  _266
REMARK  110  A    between atoms: _265  and  _268
REMARK  111  A    between atoms: _268  and  _269
REMARK  112  A    between atoms: _275  and  _277
REMARK  113  A    between atoms: _277  and  _278
REMARK  114  A    between atoms: _277  and  _280
REMARK  115  A    between atoms: _280  and  _281
REMARK  116  A    between atoms: _281  and  _282
REMARK  117  A    between atoms: _287  and  _289
REMARK  118  A    between atoms: _289  and  _290
REMARK  119  A    between atoms: _289  and  _292
REMARK  120  A    between atoms: _292  and  _293
REMARK  121  A    between atoms: _296  and  _298
REMARK  122  A    between atoms: _298  and  _299
REMARK  123  A    between atoms: _298  and  _301
REMARK  124  A    between atoms: _301  and  _302
REMARK  125  A    between atoms: _307  and  _309
REMARK  126  A    between atoms: _309  and  _310
REMARK  127  A    between atoms: _309  and  _312
REMARK  128  A    between atoms: _312  and  _313
REMARK  129  A    between atoms: _313  and  _314
REMARK  130  A    between atoms: _316  and  _318
REMARK  131  A    between atoms: _318  and  _319
REMARK  132  A    between atoms: _318  and  _321
REMARK  133  A    between atoms: _321  and  _322
REMARK  134  A    between atoms: _325  and  _327
REMARK  135  A    between atoms: _327  and  _328
REMARK  136  A    between atoms: _327  and  _330
REMARK  137  A    between atoms: _330  and  _331
REMARK  138  A    between atoms: _331  and  _332
REMARK  139  A    between atoms: _332  and  _333
REMARK  140  A    between atoms: _342  and  _344
REMARK  141  A    between atoms: _344  and  _345
REMARK  142  A    between atoms: _344  and  _347
REMARK  143  A    between atoms: _347  and  _348
REMARK  144  A    between atoms: _353  and  _354
REMARK  145  A    between atoms: _356  and  _358
REMARK  146  A    between atoms: _358  and  _359
REMARK  147  A    between atoms: _358  and  _365
REMARK  148  A    between atoms: _359  and  _360
REMARK  149  A    between atoms: _360  and  _361
REMARK  150  A    between atoms: _361  and  _362
REMARK  151  A    between atoms: _362  and  _363
REMARK  152  A    between atoms: _370  and  _372
REMARK  153  A    between atoms: _372  and  _373
REMARK  154  A    between atoms: _372  and  _375
REMARK  155  A    between atoms: _375  and  _376
REMARK  156  A    between atoms: _378  and  _380
REMARK  157  A    between atoms: _380  and  _381
REMARK  158  A    between atoms: _380  and  _383
REMARK  159  A    between atoms: _383  and  _384
REMARK  160  A    between atoms: _384  and  _385
REMARK  161  A    between atoms: _385  and  _386
REMARK  162  A    between atoms: _386  and  _387
REMARK  163  A    between atoms: _391  and  _393
REMARK  164  A    between atoms: _393  and  _394
REMARK  165  A    between atoms: _397  and  _399
REMARK  166  A    between atoms: _399  and  _400
REMARK  167  A    between atoms: _399  and  _402
REMARK  168  A    between atoms: _402  and  _403
REMARK  169  A    between atoms: _406  and  _408
REMARK  170  A    between atoms: _408  and  _409
REMARK  171  A    between atoms: _408  and  _411
REMARK  172  A    between atoms: _411  and  _412
REMARK  173  A    between atoms: _417  and  _419
REMARK  174  A    between atoms: _419  and  _420
REMARK  175  A    between atoms: _419  and  _422
REMARK  176  A    between atoms: _422  and  _423
REMARK  177  A    between atoms: _426  and  _428
REMARK  178  A    between atoms: _428  and  _429
REMARK  179  A    between atoms: _431  and  _433
REMARK  180  A    between atoms: _433  and  _434
REMARK  181  A    between atoms: _433  and  _436
REMARK  182  A    between atoms: _436  and  _437
REMARK  183  A    between atoms: _437  and  _438
REMARK  184  A    between atoms: _438  and  _439
REMARK  185  A    between atoms: _439  and  _440
REMARK  186  A    between atoms: _444  and  _446
REMARK  187  A    between atoms: _446  and  _447
REMARK  188  A    between atoms: _450  and  _452
REMARK  189  A    between atoms: _452  and  _453
REMARK  190  A    between atoms: _452  and  _455
REMARK  191  A    between atoms: _457  and  _459
REMARK  192  A    between atoms: _459  and  _460
REMARK  193  A    between atoms: _463  and  _465
REMARK  194  A    between atoms: _465  and  _466
REMARK  195  A    between atoms: _465  and  _468
REMARK  196  A    between atoms: _468  and  _469
REMARK  197  A    between atoms: _471  and  _473
REMARK  198  A    between atoms: _473  and  _474
REMARK  199  A    between atoms: _473  and  _476
REMARK  200  A    between atoms: _476  and  _477
REMARK  201  A    between atoms: _480  and  _482
REMARK  202  A    between atoms: _482  and  _483
REMARK  203  A    between atoms: _482  and  _485
REMARK  204  A    between atoms: _485  and  _486
REMARK  205  A    between atoms: _489  and  _491
REMARK  206  A    between atoms: _491  and  _492
REMARK  207  A    between atoms: _491  and  _494
REMARK  208  A    between atoms: _494  and  _495
REMARK  209  A    between atoms: _495  and  _496
REMARK  210  A    between atoms: _501  and  _503
REMARK  211  A    between atoms: _503  and  _504
REMARK  212  A    between atoms: _503  and  _506
REMARK  213  A    between atoms: _506  and  _507
REMARK  214  A    between atoms: _513  and  _515
REMARK  215  A    between atoms: _515  and  _516
REMARK  216  A    between atoms: _515  and  _518
REMARK  217  A    between atoms: _518  and  _519
REMARK  218  A    between atoms: _519  and  _520
REMARK  219  A    between atoms: _520  and  _521
REMARK  220  A    between atoms: _521  and  _522
REMARK  221  A    between atoms: _526  and  _528
REMARK  222  A    between atoms: _528  and  _529
REMARK  223  A    between atoms: _528  and  _531
REMARK  224  A    between atoms: _531  and  _532
REMARK  225  A    between atoms: _537  and  _539
REMARK  226  A    between atoms: _539  and  _540
REMARK  227  A    between atoms: _539  and  _542
REMARK  228  A    between atoms: _542  and  _543
REMARK  229  A    between atoms: _549  and  _551
REMARK  230  A    between atoms: _551  and  _552
REMARK  231  A    between atoms: _551  and  _554
REMARK  232  A    between atoms: _554  and  _555
REMARK  233  A    between atoms: _555  and  _556
REMARK  234  A    between atoms: _559  and  _561
REMARK  235  A    between atoms: _561  and  _562
REMARK  236  A    between atoms: _561  and  _564
REMARK  237  A    between atoms: _564  and  _565
REMARK  238  A    between atoms: _565  and  _566
REMARK  239  A    between atoms: _571  and  _573
REMARK  240  A    between atoms: _573  and  _574
REMARK  241  A    between atoms: _573  and  _576
REMARK  242  A    between atoms: _576  and  _577
REMARK  243  A    between atoms: _577  and  _578
REMARK  244  A    between atoms: _578  and  _579
REMARK  245  A    between atoms: _588  and  _590
REMARK  246  A    between atoms: _590  and  _591
REMARK                            x       y       z     vdW  Elec       q    Type
REMARK                         _______ _______ _______ _____ _____    ______ ____
ROOT
ATOM      1  CB  HIS A   1      24.826  26.812  44.410  0.00  0.00    +0.072 C 
ENDROOT
BRANCH   1   2
ATOM      2  CG  HIS A   1      25.102  27.965  43.495  0.00  0.00    +0.082 A 
ATOM      3  ND1 HIS A   1      26.373  28.286  43.055  0.00  0.00    -0.227 NA
ATOM      4  CE1 HIS A   1      26.302  29.323  42.239  0.00  0.00    +0.199 A 
ATOM      5  NE2 HIS A   1      25.036  29.698  42.146  0.00  0.00    -0.221 NA
ATOM      6  CD2 HIS A   1      24.262  28.849  42.897  0.00  0.00    +0.115 A 
ENDBRANCH   1   2
BRANCH   1   7
ATOM      7  CA  HIS A   1      25.078  25.444  43.768  0.00  0.00    +0.139 C 
BRANCH   7   8
ATOM      8  N   HIS A   1      24.622  24.375  44.677  0.00  0.00    -0.239 NA
ATOM      9  H   HIS A   1      24.131  24.625  45.559  0.00  0.00    +0.142 HD
ENDBRANCH   7   8
BRANCH   7  10
ATOM     10  C   HIS A   1      26.597  25.260  43.609  0.00  0.00    +0.224 C 
ATOM     11  O   HIS A   1      27.260  25.022  44.618  0.00  0.00    -0.287 OA
ENDBRANCH   7  10
ENDBRANCH   1   7
TORSDOF 4
REMARK  Name = ../refined-set-2016/2xpc/2xpc_pocket.pdb
REMARK  246 active torsions:
REMARK  status: ('A' for Active; 'I' for Inactive)
REMARK    1  A    between atoms: _1  and  _3
REMARK    2  A    between atoms: _3  and  _4
REMARK    3  A    between atoms: _3  and  _6
REMARK    4  A    between atoms: _6  and  _7
REMARK    5  A    between atoms: _10  and  _12
REMARK    6  A    between atoms: _12  and  _13
REMARK    7  A    between atoms: _12  and  _15
REMARK    8  A    between atoms: _15  and  _16
REMARK    9  A    between atoms: _19  and  _21
REMARK   10  A    between atoms: _21  and  _22
REMARK   11  A    between atoms: _24  and  _26
REMARK   12  A    between atoms: _26  and  _27
REMARK   13  A    between atoms: _26  and  _29
REMARK   14  A    between atoms: _29  and  _30
REMARK   15  A    between atoms: _33  and  _35
REMARK   16  A    between atoms: _35  and  _36
REMARK   17  A    between atoms: _38  and  _40
REMARK   18  A    between atoms: _40  and  _41
REMARK   19  A    between atoms: _40  and  _43
REMARK   20  A    between atoms: _43  and  _44
REMARK   21  A    between atoms: _47  and  _49
REMARK   22  A    between atoms: _49  and  _50
REMARK   23  A    between atoms: _49  and  _52
REMARK   24  A    between atoms: _52  and  _53
REMARK   25  A    between atoms: _56  and  _58
REMARK   26  A    between atoms: _58  and  _59
REMARK   27  A    between atoms: _61  and  _63
REMARK   28  A    between atoms: _63  and  _64
REMARK   29  A    between atoms: _63  and  _66
REMARK   30  A    between atoms: _66  and  _67
REMARK   31  A    between atoms: _67  and  _68
REMARK   32  A    between atoms: _70  and  _72
REMARK   33  A    between atoms: _72  and  _73
REMARK   34  A    between atoms: _72  and  _75
REMARK   35  A    between atoms: _75  and  _76
REMARK   36  A    between atoms: _79  and  _81
REMARK   37  A    between atoms: _81  and  _82
REMARK   38  A    between atoms: _81  and  _84
REMARK   39  A    between atoms: _84  and  _85
REMARK   40  A    between atoms: _88  and  _90
REMARK   41  A    between atoms: _90  and  _91
REMARK   42  A    between atoms: _90  and  _93
REMARK   43  A    between atoms: _93  and  _94
REMARK   44  A    between atoms: _94  and  _95
REMARK   45  A    between atoms: _95  and  _96
REMARK   46  A    between atoms: _106  and  _107
REMARK   47  A    between atoms: _113  and  _114
REMARK   48  A    between atoms: _119  and  _121
REMARK   49  A    between atoms: _121  and  _122
REMARK   50  A    between atoms: _121  and  _124
REMARK   51  A    between atoms: _124  and  _125
REMARK   52  A    between atoms: _130  and  _132
REMARK   53  A    between atoms: _132  and  _133
REMARK   54  A    between atoms: _135  and  _137
REMARK   55  A    between atoms: _137  and  _138
REMARK   56  A    between atoms: _137  and  _140
REMARK   57  A    between atoms: _140  and  _141
REMARK   58  A    between atoms: _143  and  _145
REMARK   59  A    between atoms: _145  and  _146
REMARK   60  A    between atoms: _145  and  _148
REMARK   61  A    between atoms: _148  and  _149
REMARK   62  A    between atoms: _152  and  _154
REMARK   63  A    between atoms: _154  and  _155
REMARK   64  A    between atoms: _154  and  _157
REMARK   65  A    between atoms: _157  and  _158
REMARK   66  A    between atoms: _163  and  _165
REMARK   67  A    between atoms: _165  and  _166
REMARK   68  A    between atoms: _169  and  _171
REMARK   69  A    between atoms: _171  and  _172
REMARK   70  A    between atoms: _171  and  _174
REMARK   71  A    between atoms: _174  and  _175
REMARK   72  A    between atoms: _178  and  _179
REMARK   73  A    between atoms: _184  and  _186
REMARK   74  A    between atoms: _186  and  _187
REMARK   75  A    between atoms: _189  and  _191
REMARK   76  A    between atoms: _191  and  _192
REMARK   77  A    between atoms: _191  and  _194
REMARK   78  A    between atoms: _194  and  _195
REMARK   79  A    between atoms: _198  and  _200
REMARK   80  A    between atoms: _200  and  _201
REMARK   81  A    between atoms: _204  and  _206
REMARK   82  A    between atoms: _206  and  _207
REMARK   83  A    between atoms: _206  and  _209
REMARK   84  A    between atoms: _209  and  _210
REMARK   85  A    between atoms: _215  and  _217
REMARK   86  A    between atoms: _217  and  _218
REMARK   87  A    between atoms: _217  and  _220
REMARK   88  A    between atoms: _220  and  _221
REMARK   89  A    between atoms: _223  and  _225
REMARK   90  A    between atoms: _225  and  _226
REMARK   91  A    between atoms: _225  and  _228
REMARK   92  A    between atoms: _228  and  _229
REMARK   93  A    between atoms: _229  and  _230
REMARK   94  A    between atoms: _230  and  _231
REMARK   95  A    between atoms: _231  and  _232
REMARK   96  A    between atoms: _236  and  _238
REMARK   97  A    between atoms: _238  and  _239
REMARK   98  A    between atoms: _238  and  _241
REMARK   99  A    between atoms: _241  and  _242
REMARK  100  A    between atoms: _247  and  _249
REMARK  101  A    between atoms: _249  and  _250
REMARK  102  A    between atoms: _249  and  _252
REMARK  103  A    between atoms: _252  and  _253
REMARK  104  A    between atoms: _255  and  _257
REMARK  105  A    between atoms: _257  and  _258
REMARK  106  A    between atoms: _257  and  _260
REMARK  107  A    between atoms: _260  and  _261
REMARK  108  A    between atoms: _263  and  _265
REMARK  109  A    between atoms: _265  and  _266
REMARK  110  A    between atoms: _265  and  _268
REMARK  111  A    between atoms: _268  and  _269
REMARK  112  A    between atoms: _275  and  _277
REMARK  113  A    between atoms: _277  and  _278
REMARK  114  A    between atoms: _277  and  _280
REMARK  115  A    between atoms: _280  and  _281
REMARK  116  A    between atoms: _281  and  _282
REMARK  117  A    between atoms: _287  and  _289
REMARK  118  A    between atoms: _289  and  _290
REMARK  119  A    between atoms: _289  and  _292
REMARK  120  A    between atoms: _292  and  _293
REMARK  121  A    between atoms: _296  and  _298
REMARK  122  A    between atoms: _298  and  _299
REMARK  123  A    between atoms: _298  and  _301
REMARK  124  A    between atoms: _301  and  _302
REMARK  125  A    between atoms: _307  and  _309
REMARK  126  A    between atoms: _309  and  _310
REMARK  127  A    between atoms: _309  and  _312
REMARK  128  A    between atoms: _312  and  _313
REMARK  129  A    between atoms: _313  and  _314
REMARK  130  A    between atoms: _316  and  _318
REMARK  131  A    between atoms: _318  and  _319
REMARK  132  A    between atoms: _318  and  _321
REMARK  133  A    between atoms: _321  and  _322
REMARK  134  A    between atoms: _325  and  _327
REMARK  135  A    between atoms: _327  and  _328
REMARK  136  A    between atoms: _327  and  _330
REMARK  137  A    between atoms: _330  and  _331
REMARK  138  A    between atoms: _331  and  _332
REMARK  139  A    between atoms: _332  and  _333
REMARK  140  A    between atoms: _342  and  _344
REMARK  141  A    between atoms: _344  and  _345
REMARK  142  A    between atoms: _344  and  _347
REMARK  143  A    between atoms: _347  and  _348
REMARK  144  A    between atoms: _353  and  _354
REMARK  145  A    between atoms: _356  and  _358
REMARK  146  A    between atoms: _358  and  _359
REMARK  147  A    between atoms: _358  and  _365
REMARK  148  A    between atoms: _359  and  _360
REMARK  149  A    between atoms: _360  and  _361
REMARK  150  A    between atoms: _361  and  _362
REMARK  151  A    between atoms: _362  and  _363
REMARK  152  A    between atoms: _370  and  _372
REMARK  153  A    between atoms: _372  and  _373
REMARK  154  A    between atoms: _372  and  _375
REMARK  155  A    between atoms: _375  and  _376
REMARK  156  A    between atoms: _378  and  _380
REMARK  157  A    between atoms: _380  and  _381
REMARK  158  A    between atoms: _380  and  _383
REMARK  159  A    between atoms: _383  and  _384
REMARK  160  A    between atoms: _384  and  _385
REMARK  161  A    between atoms: _385  and  _386
REMARK  162  A    between atoms: _386  and  _387
REMARK  163  A    between atoms: _391  and  _393
REMARK  164  A    between atoms: _393  and  _394
REMARK  165  A    between atoms: _397  and  _399
REMARK  166  A    between atoms: _399  and  _400
REMARK  167  A    between atoms: _399  and  _402
REMARK  168  A    between atoms: _402  and  _403
REMARK  169  A    between atoms: _406  and  _408
REMARK  170  A    between atoms: _408  and  _409
REMARK  171  A    between atoms: _408  and  _411
REMARK  172  A    between atoms: _411  and  _412
REMARK  173  A    between atoms: _417  and  _419
REMARK  174  A    between atoms: _419  and  _420
REMARK  175  A    between atoms: _419  and  _422
REMARK  176  A    between atoms: _422  and  _423
REMARK  177  A    between atoms: _426  and  _428
REMARK  178  A    between atoms: _428  and  _429
REMARK  179  A    between atoms: _431  and  _433
REMARK  180  A    between atoms: _433  and  _434
REMARK  181  A    between atoms: _433  and  _436
REMARK  182  A    between atoms: _436  and  _437
REMARK  183  A    between atoms: _437  and  _438
REMARK  184  A    between atoms: _438  and  _439
REMARK  185  A    between atoms: _439  and  _440
REMARK  186  A    between atoms: _444  and  _446
REMARK  187  A    between atoms: _446  and  _447
REMARK  188  A    between atoms: _450  and  _452
REMARK  189  A    between atoms: _452  and  _453
REMARK  190  A    between atoms: _452  and  _455
REMARK  191  A    between atoms: _457  and  _459
REMARK  192  A    between atoms: _459  and  _460
REMARK  193  A    between atoms: _463  and  _465
REMARK  194  A    between atoms: _465  and  _466
REMARK  195  A    between atoms: _465  and  _468
REMARK  196  A    between atoms: _468  and  _469
REMARK  197  A    between atoms: _471  and  _473
REMARK  198  A    between atoms: _473  and  _474
REMARK  199  A    between atoms: _473  and  _476
REMARK  200  A    between atoms: _476  and  _477
REMARK  201  A    between atoms: _480  and  _482
REMARK  202  A    between atoms: _482  and  _483
REMARK  203  A    between atoms: _482  and  _485
REMARK  204  A    between atoms: _485  and  _486
REMARK  205  A    between atoms: _489  and  _491
REMARK  206  A    between atoms: _491  and  _492
REMARK  207  A    between atoms: _491  and  _494
REMARK  208  A    between atoms: _494  and  _495
REMARK  209  A    between atoms: _495  and  _496
REMARK  210  A    between atoms: _501  and  _503
REMARK  211  A    between atoms: _503  and  _504
REMARK  212  A    between atoms: _503  and  _506
REMARK  213  A    between atoms: _506  and  _507
REMARK  214  A    between atoms: _513  and  _515
REMARK  215  A    between atoms: _515  and  _516
REMARK  216  A    between atoms: _515  and  _518
REMARK  217  A    between atoms: _518  and  _519
REMARK  218  A    between atoms: _519  and  _520
REMARK  219  A    between atoms: _520  and  _521
REMARK  220  A    between atoms: _521  and  _522
REMARK  221  A    between atoms: _526  and  _528
REMARK  222  A    between atoms: _528  and  _529
REMARK  223  A    between atoms: _528  and  _531
REMARK  224  A    between atoms: _531  and  _532
REMARK  225  A    between atoms: _537  and  _539
REMARK  226  A    between atoms: _539  and  _540
REMARK  227  A    between atoms: _539  and  _542
REMARK  228  A    between atoms: _542  and  _543
REMARK  229  A    between atoms: _549  and  _551
REMARK  230  A    between atoms: _551  and  _552
REMARK  231  A    between atoms: _551  and  _554
REMARK  232  A    between atoms: _554  and  _555
REMARK  233  A    between atoms: _555  and  _556
REMARK  234  A    between atoms: _559  and  _561
REMARK  235  A    between atoms: _561  and  _562
REMARK  236  A    between atoms: _561  and  _564
REMARK  237  A    between atoms: _564  and  _565
REMARK  238  A    between atoms: _565  and  _566
REMARK  239  A    between atoms: _571  and  _573
REMARK  240  A    between atoms: _573  and  _574
REMARK  241  A    between atoms: _573  and  _576
REMARK  242  A    between atoms: _576  and  _577
REMARK  243  A    between atoms: _577  and  _578
REMARK  244  A    between atoms: _578  and  _579
REMARK  245  A    between atoms: _588  and  _590
REMARK  246  A    between atoms: _590  and  _591
REMARK                            x       y       z     vdW  Elec       q    Type
REMARK                         _______ _______ _______ _____ _____    ______ ____
ROOT
ATOM      1  CA  SER A   1       4.850  19.190  53.208  0.00  0.00    +0.163 C 
ENDROOT
BRANCH   1   2
ATOM      2  N   SER A   1       5.271  18.554  54.454  0.00  0.00    -0.237 NA
ATOM      3  H   SER A   1       5.100  17.539  54.604  0.00  0.00    +0.142 HD
ENDBRANCH   1   2
BRANCH   1   4
ATOM      4  CB  SER A   1       3.604  20.063  53.382  0.00  0.00    +0.227 C 
ATOM      5  OG  SER A   1       3.394  21.037  52.646  0.00  0.00    -0.287 OA
ENDBRANCH   1   4
BRANCH   1   6
ATOM      6  C   SER A   1       4.639  18.120  52.119  0.00  0.00    +0.162 C 
BRANCH   6   7
ATOM      7  O   SER A   1       5.859  17.382  51.997  0.00  0.00    -0.380 OA
ATOM      8  H   SER A   1       6.591  17.997  51.741  0.00  0.00    +0.211 HD
ENDBRANCH   6   7
ENDBRANCH   1   6
TORSDOF 4
REMARK  Name = ../refined-set-2016/2xpc/2xpc_pocket.pdb
REMARK  246 active torsions:
REMARK  status: ('A' for Active; 'I' for Inactive)
REMARK    1  A    between atoms: _1  and  _3
REMARK    2  A    between atoms: _3  and  _4
REMARK    3  A    between atoms: _3  and  _6
REMARK    4  A    between atoms: _6  and  _7
REMARK    5  A    between atoms: _10  and  _12
REMARK    6  A    between atoms: _12  and  _13
REMARK    7  A    between atoms: _12  and  _15
REMARK    8  A    between atoms: _15  and  _16
REMARK    9  A    between atoms: _19  and  _21
REMARK   10  A    between atoms: _21  and  _22
REMARK   11  A    between atoms: _24  and  _26
REMARK   12  A    between atoms: _26  and  _27
REMARK   13  A    between atoms: _26  and  _29
REMARK   14  A    between atoms: _29  and  _30
REMARK   15  A    between atoms: _33  and  _35
REMARK   16  A    between atoms: _35  and  _36
REMARK   17  A    between atoms: _38  and  _40
REMARK   18  A    between atoms: _40  and  _41
REMARK   19  A    between atoms: _40  and  _43
REMARK   20  A    between atoms: _43  and  _44
REMARK   21  A    between atoms: _47  and  _49
REMARK   22  A    between atoms: _49  and  _50
REMARK   23  A    between atoms: _49  and  _52
REMARK   24  A    between atoms: _52  and  _53
REMARK   25  A    between atoms: _56  and  _58
REMARK   26  A    between atoms: _58  and  _59
REMARK   27  A    between atoms: _61  and  _63
REMARK   28  A    between atoms: _63  and  _64
REMARK   29  A    between atoms: _63  and  _66
REMARK   30  A    between atoms: _66  and  _67
REMARK   31  A    between atoms: _67  and  _68
REMARK   32  A    between atoms: _70  and  _72
REMARK   33  A    between atoms: _72  and  _73
REMARK   34  A    between atoms: _72  and  _75
REMARK   35  A    between atoms: _75  and  _76
REMARK   36  A    between atoms: _79  and  _81
REMARK   37  A    between atoms: _81  and  _82
REMARK   38  A    between atoms: _81  and  _84
REMARK   39  A    between atoms: _84  and  _85
REMARK   40  A    between atoms: _88  and  _90
REMARK   41  A    between atoms: _90  and  _91
REMARK   42  A    between atoms: _90  and  _93
REMARK   43  A    between atoms: _93  and  _94
REMARK   44  A    between atoms: _94  and  _95
REMARK   45  A    between atoms: _95  and  _96
REMARK   46  A    between atoms: _106  and  _107
REMARK   47  A    between atoms: _113  and  _114
REMARK   48  A    between atoms: _119  and  _121
REMARK   49  A    between atoms: _121  and  _122
REMARK   50  A    between atoms: _121  and  _124
REMARK   51  A    between atoms: _124  and  _125
REMARK   52  A    between atoms: _130  and  _132
REMARK   53  A    between atoms: _132  and  _133
REMARK   54  A    between atoms: _135  and  _137
REMARK   55  A    between atoms: _137  and  _138
REMARK   56  A    between atoms: _137  and  _140
REMARK   57  A    between atoms: _140  and  _141
REMARK   58  A    between atoms: _143  and  _145
REMARK   59  A    between atoms: _145  and  _146
REMARK   60  A    between atoms: _145  and  _148
REMARK   61  A    between atoms: _148  and  _149
REMARK   62  A    between atoms: _152  and  _154
REMARK   63  A    between atoms: _154  and  _155
REMARK   64  A    between atoms: _154  and  _157
REMARK   65  A    between atoms: _157  and  _158
REMARK   66  A    between atoms: _163  and  _165
REMARK   67  A    between atoms: _165  and  _166
REMARK   68  A    between atoms: _169  and  _171
REMARK   69  A    between atoms: _171  and  _172
REMARK   70  A    between atoms: _171  and  _174
REMARK   71  A    between atoms: _174  and  _175
REMARK   72  A    between atoms: _178  and  _179
REMARK   73  A    between atoms: _184  and  _186
REMARK   74  A    between atoms: _186  and  _187
REMARK   75  A    between atoms: _189  and  _191
REMARK   76  A    between atoms: _191  and  _192
REMARK   77  A    between atoms: _191  and  _194
REMARK   78  A    between atoms: _194  and  _195
REMARK   79  A    between atoms: _198  and  _200
REMARK   80  A    between atoms: _200  and  _201
REMARK   81  A    between atoms: _204  and  _206
REMARK   82  A    between atoms: _206  and  _207
REMARK   83  A    between atoms: _206  and  _209
REMARK   84  A    between atoms: _209  and  _210
REMARK   85  A    between atoms: _215  and  _217
REMARK   86  A    between atoms: _217  and  _218
REMARK   87  A    between atoms: _217  and  _220
REMARK   88  A    between atoms: _220  and  _221
REMARK   89  A    between atoms: _223  and  _225
REMARK   90  A    between atoms: _225  and  _226
REMARK   91  A    between atoms: _225  and  _228
REMARK   92  A    between atoms: _228  and  _229
REMARK   93  A    between atoms: _229  and  _230
REMARK   94  A    between atoms: _230  and  _231
REMARK   95  A    between atoms: _231  and  _232
REMARK   96  A    between atoms: _236  and  _238
REMARK   97  A    between atoms: _238  and  _239
REMARK   98  A    between atoms: _238  and  _241
REMARK   99  A    between atoms: _241  and  _242
REMARK  100  A    between atoms: _247  and  _249
REMARK  101  A    between atoms: _249  and  _250
REMARK  102  A    between atoms: _249  and  _252
REMARK  103  A    between atoms: _252  and  _253
REMARK  104  A    between atoms: _255  and  _257
REMARK  105  A    between atoms: _257  and  _258
REMARK  106  A    between atoms: _257  and  _260
REMARK  107  A    between atoms: _260  and  _261
REMARK  108  A    between atoms: _263  and  _265
REMARK  109  A    between atoms: _265  and  _266
REMARK  110  A    between atoms: _265  and  _268
REMARK  111  A    between atoms: _268  and  _269
REMARK  112  A    between atoms: _275  and  _277
REMARK  113  A    between atoms: _277  and  _278
REMARK  114  A    between atoms: _277  and  _280
REMARK  115  A    between atoms: _280  and  _281
REMARK  116  A    between atoms: _281  and  _282
REMARK  117  A    between atoms: _287  and  _289
REMARK  118  A    between atoms: _289  and  _290
REMARK  119  A    between atoms: _289  and  _292
REMARK  120  A    between atoms: _292  and  _293
REMARK  121  A    between atoms: _296  and  _298
REMARK  122  A    between atoms: _298  and  _299
REMARK  123  A    between atoms: _298  and  _301
REMARK  124  A    between atoms: _301  and  _302
REMARK  125  A    between atoms: _307  and  _309
REMARK  126  A    between atoms: _309  and  _310
REMARK  127  A    between atoms: _309  and  _312
REMARK  128  A    between atoms: _312  and  _313
REMARK  129  A    between atoms: _313  and  _314
REMARK  130  A    between atoms: _316  and  _318
REMARK  131  A    between atoms: _318  and  _319
REMARK  132  A    between atoms: _318  and  _321
REMARK  133  A    between atoms: _321  and  _322
REMARK  134  A    between atoms: _325  and  _327
REMARK  135  A    between atoms: _327  and  _328
REMARK  136  A    between atoms: _327  and  _330
REMARK  137  A    between atoms: _330  and  _331
REMARK  138  A    between atoms: _331  and  _332
REMARK  139  A    between atoms: _332  and  _333
REMARK  140  A    between atoms: _342  and  _344
REMARK  141  A    between atoms: _344  and  _345
REMARK  142  A    between atoms: _344  and  _347
REMARK  143  A    between atoms: _347  and  _348
REMARK  144  A    between atoms: _353  and  _354
REMARK  145  A    between atoms: _356  and  _358
REMARK  146  A    between atoms: _358  and  _359
REMARK  147  A    between atoms: _358  and  _365
REMARK  148  A    between atoms: _359  and  _360
REMARK  149  A    between atoms: _360  and  _361
REMARK  150  A    between atoms: _361  and  _362
REMARK  151  A    between atoms: _362  and  _363
REMARK  152  A    between atoms: _370  and  _372
REMARK  153  A    between atoms: _372  and  _373
REMARK  154  A    between atoms: _372  and  _375
REMARK  155  A    between atoms: _375  and  _376
REMARK  156  A    between atoms: _378  and  _380
REMARK  157  A    between atoms: _380  and  _381
REMARK  158  A    between atoms: _380  and  _383
REMARK  159  A    between atoms: _383  and  _384
REMARK  160  A    between atoms: _384  and  _385
REMARK  161  A    between atoms: _385  and  _386
REMARK  162  A    between atoms: _386  and  _387
REMARK  163  A    between atoms: _391  and  _393
REMARK  164  A    between atoms: _393  and  _394
REMARK  165  A    between atoms: _397  and  _399
REMARK  166  A    between atoms: _399  and  _400
REMARK  167  A    between atoms: _399  and  _402
REMARK  168  A    between atoms: _402  and  _403
REMARK  169  A    between atoms: _406  and  _408
REMARK  170  A    between atoms: _408  and  _409
REMARK  171  A    between atoms: _408  and  _411
REMARK  172  A    between atoms: _411  and  _412
REMARK  173  A    between atoms: _417  and  _419
REMARK  174  A    between atoms: _419  and  _420
REMARK  175  A    between atoms: _419  and  _422
REMARK  176  A    between atoms: _422  and  _423
REMARK  177  A    between atoms: _426  and  _428
REMARK  178  A    between atoms: _428  and  _429
REMARK  179  A    between atoms: _431  and  _433
REMARK  180  A    between atoms: _433  and  _434
REMARK  181  A    between atoms: _433  and  _436
REMARK  182  A    between atoms: _436  and  _437
REMARK  183  A    between atoms: _437  and  _438
REMARK  184  A    between atoms: _438  and  _439
REMARK  185  A    between atoms: _439  and  _440
REMARK  186  A    between atoms: _444  and  _446
REMARK  187  A    between atoms: _446  and  _447
REMARK  188  A    between atoms: _450  and  _452
REMARK  189  A    between atoms: _452  and  _453
REMARK  190  A    between atoms: _452  and  _455
REMARK  191  A    between atoms: _457  and  _459
REMARK  192  A    between atoms: _459  and  _460
REMARK  193  A    between atoms: _463  and  _465
REMARK  194  A    between atoms: _465  and  _466
REMARK  195  A    between atoms: _465  and  _468
REMARK  196  A    between atoms: _468  and  _469
REMARK  197  A    between atoms: _471  and  _473
REMARK  198  A    between atoms: _473  and  _474
REMARK  199  A    between atoms: _473  and  _476
REMARK  200  A    between atoms: _476  and  _477
REMARK  201  A    between atoms: _480  and  _482
REMARK  202  A    between atoms: _482  and  _483
REMARK  203  A    between atoms: _482  and  _485
REMARK  204  A    between atoms: _485  and  _486
REMARK  205  A    between atoms: _489  and  _491
REMARK  206  A    between atoms: _491  and  _492
REMARK  207  A    between atoms: _491  and  _494
REMARK  208  A    between atoms: _494  and  _495
REMARK  209  A    between atoms: _495  and  _496
REMARK  210  A    between atoms: _501  and  _503
REMARK  211  A    between atoms: _503  and  _504
REMARK  212  A    between atoms: _503  and  _506
REMARK  213  A    between atoms: _506  and  _507
REMARK  214  A    between atoms: _513  and  _515
REMARK  215  A    between atoms: _515  and  _516
REMARK  216  A    between atoms: _515  and  _518
REMARK  217  A    between atoms: _518  and  _519
REMARK  218  A    between atoms: _519  and  _520
REMARK  219  A    between atoms: _520  and  _521
REMARK  220  A    between atoms: _521  and  _522
REMARK  221  A    between atoms: _526  and  _528
REMARK  222  A    between atoms: _528  and  _529
REMARK  223  A    between atoms: _528  and  _531
REMARK  224  A    between atoms: _531  and  _532
REMARK  225  A    between atoms: _537  and  _539
REMARK  226  A    between atoms: _539  and  _540
REMARK  227  A    between atoms: _539  and  _542
REMARK  228  A    between atoms: _542  and  _543
REMARK  229  A    between atoms: _549  and  _551
REMARK  230  A    between atoms: _551  and  _552
REMARK  231  A    between atoms: _551  and  _554
REMARK  232  A    between atoms: _554  and  _555
REMARK  233  A    between atoms: _555  and  _556
REMARK  234  A    between atoms: _559  and  _561
REMARK  235  A    between atoms: _561  and  _562
REMARK  236  A    between atoms: _561  and  _564
REMARK  237  A    between atoms: _564  and  _565
REMARK  238  A    between atoms: _565  and  _566
REMARK  239  A    between atoms: _571  and  _573
REMARK  240  A    between atoms: _573  and  _574
REMARK  241  A    between atoms: _573  and  _576
REMARK  242  A    between atoms: _576  and  _577
REMARK  243  A    between atoms: _577  and  _578
REMARK  244  A    between atoms: _578  and  _579
REMARK  245  A    between atoms: _588  and  _590
REMARK  246  A    between atoms: _590  and  _591
REMARK                            x       y       z     vdW  Elec       q    Type
REMARK                         _______ _______ _______ _____ _____    ______ ____
ROOT
ATOM      1  CG  LYS A   1       5.210  23.461  57.669  0.00  0.00    -0.000 C 
ENDROOT
BRANCH   1   2
ATOM      2  CB  LYS A   1       4.933  22.706  58.883  0.00  0.00    +0.025 C 
BRANCH   2   3
ATOM      3  CA  LYS A   1       3.496  22.834  59.439  0.00  0.00    +0.133 C 
BRANCH   3   4
ATOM      4  N   LYS A   1       2.459  22.465  58.479  0.00  0.00    -0.239 NA
ATOM      5  H   LYS A   1       2.651  22.436  57.457  0.00  0.00    +0.142 HD
ENDBRANCH   3   4
BRANCH   3   6
ATOM      6  C   LYS A   1       3.221  24.180  60.114  0.00  0.00    +0.224 C 
ATOM      7  O   LYS A   1       3.555  24.331  61.287  0.00  0.00    -0.287 OA
ENDBRANCH   3   6
ENDBRANCH   2   3
ENDBRANCH   1   2
BRANCH   1   8
ATOM      8  CD  LYS A   1       6.674  23.132  57.132  0.00  0.00    -0.024 C 
BRANCH   8   9
ATOM      9  CE  LYS A   1       6.903  23.820  55.778  0.00  0.00    -0.086 C 
BRANCH   9  10
ATOM     10  NZ  LYS A   1       6.069  23.163  54.747  0.00  0.00    +0.380 N 
ATOM     11  HZ1 LYS A   1       5.066  23.241  55.012  0.00  0.00    -0.089 HD
ATOM     12  HZ2 LYS A   1       6.333  22.160  54.677  0.00  0.00    -0.089 HD
ATOM     13  HZ3 LYS A   1       6.223  23.628  53.830  0.00  0.00    -0.089 HD
ENDBRANCH   9  10
ENDBRANCH   8   9
ENDBRANCH   1   8
TORSDOF 7
REMARK  Name = ../refined-set-2016/2xpc/2xpc_pocket.pdb
REMARK  246 active torsions:
REMARK  status: ('A' for Active; 'I' for Inactive)
REMARK    1  A    between atoms: _1  and  _3
REMARK    2  A    between atoms: _3  and  _4
REMARK    3  A    between atoms: _3  and  _6
REMARK    4  A    between atoms: _6  and  _7
REMARK    5  A    between atoms: _10  and  _12
REMARK    6  A    between atoms: _12  and  _13
REMARK    7  A    between atoms: _12  and  _15
REMARK    8  A    between atoms: _15  and  _16
REMARK    9  A    between atoms: _19  and  _21
REMARK   10  A    between atoms: _21  and  _22
REMARK   11  A    between atoms: _24  and  _26
REMARK   12  A    between atoms: _26  and  _27
REMARK   13  A    between atoms: _26  and  _29
REMARK   14  A    between atoms: _29  and  _30
REMARK   15  A    between atoms: _33  and  _35
REMARK   16  A    between atoms: _35  and  _36
REMARK   17  A    between atoms: _38  and  _40
REMARK   18  A    between atoms: _40  and  _41
REMARK   19  A    between atoms: _40  and  _43
REMARK   20  A    between atoms: _43  and  _44
REMARK   21  A    between atoms: _47  and  _49
REMARK   22  A    between atoms: _49  and  _50
REMARK   23  A    between atoms: _49  and  _52
REMARK   24  A    between atoms: _52  and  _53
REMARK   25  A    between atoms: _56  and  _58
REMARK   26  A    between atoms: _58  and  _59
REMARK   27  A    between atoms: _61  and  _63
REMARK   28  A    between atoms: _63  and  _64
REMARK   29  A    between atoms: _63  and  _66
REMARK   30  A    between atoms: _66  and  _67
REMARK   31  A    between atoms: _67  and  _68
REMARK   32  A    between atoms: _70  and  _72
REMARK   33  A    between atoms: _72  and  _73
REMARK   34  A    between atoms: _72  and  _75
REMARK   35  A    between atoms: _75  and  _76
REMARK   36  A    between atoms: _79  and  _81
REMARK   37  A    between atoms: _81  and  _82
REMARK   38  A    between atoms: _81  and  _84
REMARK   39  A    between atoms: _84  and  _85
REMARK   40  A    between atoms: _88  and  _90
REMARK   41  A    between atoms: _90  and  _91
REMARK   42  A    between atoms: _90  and  _93
REMARK   43  A    between atoms: _93  and  _94
REMARK   44  A    between atoms: _94  and  _95
REMARK   45  A    between atoms: _95  and  _96
REMARK   46  A    between atoms: _106  and  _107
REMARK   47  A    between atoms: _113  and  _114
REMARK   48  A    between atoms: _119  and  _121
REMARK   49  A    between atoms: _121  and  _122
REMARK   50  A    between atoms: _121  and  _124
REMARK   51  A    between atoms: _124  and  _125
REMARK   52  A    between atoms: _130  and  _132
REMARK   53  A    between atoms: _132  and  _133
REMARK   54  A    between atoms: _135  and  _137
REMARK   55  A    between atoms: _137  and  _138
REMARK   56  A    between atoms: _137  and  _140
REMARK   57  A    between atoms: _140  and  _141
REMARK   58  A    between atoms: _143  and  _145
REMARK   59  A    between atoms: _145  and  _146
REMARK   60  A    between atoms: _145  and  _148
REMARK   61  A    between atoms: _148  and  _149
REMARK   62  A    between atoms: _152  and  _154
REMARK   63  A    between atoms: _154  and  _155
REMARK   64  A    between atoms: _154  and  _157
REMARK   65  A    between atoms: _157  and  _158
REMARK   66  A    between atoms: _163  and  _165
REMARK   67  A    between atoms: _165  and  _166
REMARK   68  A    between atoms: _169  and  _171
REMARK   69  A    between atoms: _171  and  _172
REMARK   70  A    between atoms: _171  and  _174
REMARK   71  A    between atoms: _174  and  _175
REMARK   72  A    between atoms: _178  and  _179
REMARK   73  A    between atoms: _184  and  _186
REMARK   74  A    between atoms: _186  and  _187
REMARK   75  A    between atoms: _189  and  _191
REMARK   76  A    between atoms: _191  and  _192
REMARK   77  A    between atoms: _191  and  _194
REMARK   78  A    between atoms: _194  and  _195
REMARK   79  A    between atoms: _198  and  _200
REMARK   80  A    between atoms: _200  and  _201
REMARK   81  A    between atoms: _204  and  _206
REMARK   82  A    between atoms: _206  and  _207
REMARK   83  A    between atoms: _206  and  _209
REMARK   84  A    between atoms: _209  and  _210
REMARK   85  A    between atoms: _215  and  _217
REMARK   86  A    between atoms: _217  and  _218
REMARK   87  A    between atoms: _217  and  _220
REMARK   88  A    between atoms: _220  and  _221
REMARK   89  A    between atoms: _223  and  _225
REMARK   90  A    between atoms: _225  and  _226
REMARK   91  A    between atoms: _225  and  _228
REMARK   92  A    between atoms: _228  and  _229
REMARK   93  A    between atoms: _229  and  _230
REMARK   94  A    between atoms: _230  and  _231
REMARK   95  A    between atoms: _231  and  _232
REMARK   96  A    between atoms: _236  and  _238
REMARK   97  A    between atoms: _238  and  _239
REMARK   98  A    between atoms: _238  and  _241
REMARK   99  A    between atoms: _241  and  _242
REMARK  100  A    between atoms: _247  and  _249
REMARK  101  A    between atoms: _249  and  _250
REMARK  102  A    between atoms: _249  and  _252
REMARK  103  A    between atoms: _252  and  _253
REMARK  104  A    between atoms: _255  and  _257
REMARK  105  A    between atoms: _257  and  _258
REMARK  106  A    between atoms: _257  and  _260
REMARK  107  A    between atoms: _260  and  _261
REMARK  108  A    between atoms: _263  and  _265
REMARK  109  A    between atoms: _265  and  _266
REMARK  110  A    between atoms: _265  and  _268
REMARK  111  A    between atoms: _268  and  _269
REMARK  112  A    between atoms: _275  and  _277
REMARK  113  A    between atoms: _277  and  _278
REMARK  114  A    between atoms: _277  and  _280
REMARK  115  A    between atoms: _280  and  _281
REMARK  116  A    between atoms: _281  and  _282
REMARK  117  A    between atoms: _287  and  _289
REMARK  118  A    between atoms: _289  and  _290
REMARK  119  A    between atoms: _289  and  _292
REMARK  120  A    between atoms: _292  and  _293
REMARK  121  A    between atoms: _296  and  _298
REMARK  122  A    between atoms: _298  and  _299
REMARK  123  A    between atoms: _298  and  _301
REMARK  124  A    between atoms: _301  and  _302
REMARK  125  A    between atoms: _307  and  _309
REMARK  126  A    between atoms: _309  and  _310
REMARK  127  A    between atoms: _309  and  _312
REMARK  128  A    between atoms: _312  and  _313
REMARK  129  A    between atoms: _313  and  _314
REMARK  130  A    between atoms: _316  and  _318
REMARK  131  A    between atoms: _318  and  _319
REMARK  132  A    between atoms: _318  and  _321
REMARK  133  A    between atoms: _321  and  _322
REMARK  134  A    between atoms: _325  and  _327
REMARK  135  A    between atoms: _327  and  _328
REMARK  136  A    between atoms: _327  and  _330
REMARK  137  A    between atoms: _330  and  _331
REMARK  138  A    between atoms: _331  and  _332
REMARK  139  A    between atoms: _332  and  _333
REMARK  140  A    between atoms: _342  and  _344
REMARK  141  A    between atoms: _344  and  _345
REMARK  142  A    between atoms: _344  and  _347
REMARK  143  A    between atoms: _347  and  _348
REMARK  144  A    between atoms: _353  and  _354
REMARK  145  A    between atoms: _356  and  _358
REMARK  146  A    between atoms: _358  and  _359
REMARK  147  A    between atoms: _358  and  _365
REMARK  148  A    between atoms: _359  and  _360
REMARK  149  A    between atoms: _360  and  _361
REMARK  150  A    between atoms: _361  and  _362
REMARK  151  A    between atoms: _362  and  _363
REMARK  152  A    between atoms: _370  and  _372
REMARK  153  A    between atoms: _372  and  _373
REMARK  154  A    between atoms: _372  and  _375
REMARK  155  A    between atoms: _375  and  _376
REMARK  156  A    between atoms: _378  and  _380
REMARK  157  A    between atoms: _380  and  _381
REMARK  158  A    between atoms: _380  and  _383
REMARK  159  A    between atoms: _383  and  _384
REMARK  160  A    between atoms: _384  and  _385
REMARK  161  A    between atoms: _385  and  _386
REMARK  162  A    between atoms: _386  and  _387
REMARK  163  A    between atoms: _391  and  _393
REMARK  164  A    between atoms: _393  and  _394
REMARK  165  A    between atoms: _397  and  _399
REMARK  166  A    between atoms: _399  and  _400
REMARK  167  A    between atoms: _399  and  _402
REMARK  168  A    between atoms: _402  and  _403
REMARK  169  A    between atoms: _406  and  _408
REMARK  170  A    between atoms: _408  and  _409
REMARK  171  A    between atoms: _408  and  _411
REMARK  172  A    between atoms: _411  and  _412
REMARK  173  A    between atoms: _417  and  _419
REMARK  174  A    between atoms: _419  and  _420
REMARK  175  A    between atoms: _419  and  _422
REMARK  176  A    between atoms: _422  and  _423
REMARK  177  A    between atoms: _426  and  _428
REMARK  178  A    between atoms: _428  and  _429
REMARK  179  A    between atoms: _431  and  _433
REMARK  180  A    between atoms: _433  and  _434
REMARK  181  A    between atoms: _433  and  _436
REMARK  182  A    between atoms: _436  and  _437
REMARK  183  A    between atoms: _437  and  _438
REMARK  184  A    between atoms: _438  and  _439
REMARK  185  A    between atoms: _439  and  _440
REMARK  186  A    between atoms: _444  and  _446
REMARK  187  A    between atoms: _446  and  _447
REMARK  188  A    between atoms: _450  and  _452
REMARK  189  A    between atoms: _452  and  _453
REMARK  190  A    between atoms: _452  and  _455
REMARK  191  A    between atoms: _457  and  _459
REMARK  192  A    between atoms: _459  and  _460
REMARK  193  A    between atoms: _463  and  _465
REMARK  194  A    between atoms: _465  and  _466
REMARK  195  A    between atoms: _465  and  _468
REMARK  196  A    between atoms: _468  and  _469
REMARK  197  A    between atoms: _471  and  _473
REMARK  198  A    between atoms: _473  and  _474
REMARK  199  A    between atoms: _473  and  _476
REMARK  200  A    between atoms: _476  and  _477
REMARK  201  A    between atoms: _480  and  _482
REMARK  202  A    between atoms: _482  and  _483
REMARK  203  A    between atoms: _482  and  _485
REMARK  204  A    between atoms: _485  and  _486
REMARK  205  A    between atoms: _489  and  _491
REMARK  206  A    between atoms: _491  and  _492
REMARK  207  A    between atoms: _491  and  _494
REMARK  208  A    between atoms: _494  and  _495
REMARK  209  A    between atoms: _495  and  _496
REMARK  210  A    between atoms: _501  and  _503
REMARK  211  A    between atoms: _503  and  _504
REMARK  212  A    between atoms: _503  and  _506
REMARK  213  A    between atoms: _506  and  _507
REMARK  214  A    between atoms: _513  and  _515
REMARK  215  A    between atoms: _515  and  _516
REMARK  216  A    between atoms: _515  and  _518
REMARK  217  A    between atoms: _518  and  _519
REMARK  218  A    between atoms: _519  and  _520
REMARK  219  A    between atoms: _520  and  _521
REMARK  220  A    between atoms: _521  and  _522
REMARK  221  A    between atoms: _526  and  _528
REMARK  222  A    between atoms: _528  and  _529
REMARK  223  A    between atoms: _528  and  _531
REMARK  224  A    between atoms: _531  and  _532
REMARK  225  A    between atoms: _537  and  _539
REMARK  226  A    between atoms: _539  and  _540
REMARK  227  A    between atoms: _539  and  _542
REMARK  228  A    between atoms: _542  and  _543
REMARK  229  A    between atoms: _549  and  _551
REMARK  230  A    between atoms: _551  and  _552
REMARK  231  A    between atoms: _551  and  _554
REMARK  232  A    between atoms: _554  and  _555
REMARK  233  A    between atoms: _555  and  _556
REMARK  234  A    between atoms: _559  and  _561
REMARK  235  A    between atoms: _561  and  _562
REMARK  236  A    between atoms: _561  and  _564
REMARK  237  A    between atoms: _564  and  _565
REMARK  238  A    between atoms: _565  and  _566
REMARK  239  A    between atoms: _571  and  _573
REMARK  240  A    between atoms: _573  and  _574
REMARK  241  A    between atoms: _573  and  _576
REMARK  242  A    between atoms: _576  and  _577
REMARK  243  A    between atoms: _577  and  _578
REMARK  244  A    between atoms: _578  and  _579
REMARK  245  A    between atoms: _588  and  _590
REMARK  246  A    between atoms: _590  and  _591
REMARK                            x       y       z     vdW  Elec       q    Type
REMARK                         _______ _______ _______ _____ _____    ______ ____
ROOT
ATOM      1  CB  ASN A   1       9.961  28.122  57.921  0.00  0.00    +0.110 C 
ENDROOT
BRANCH   1   2
ATOM      2  CG  ASN A   1       9.683  28.168  56.433  0.00  0.00    +0.221 C 
ATOM      3  OD1 ASN A   1       8.798  27.466  55.928  0.00  0.00    -0.275 OA
ATOM      4  ND2 ASN A   1      10.463  28.969  55.720  0.00  0.00    -0.329 N 
ATOM      5 HD21 ASN A   1      11.193  29.539  56.192  0.00  0.00    +0.145 HD
ATOM      6 HD22 ASN A   1      10.345  29.027  54.688  0.00  0.00    +0.145 HD
ENDBRANCH   1   2
BRANCH   1   7
ATOM      7  CA  ASN A   1       9.971  29.520  58.567  0.00  0.00    +0.142 C 
BRANCH   7   8
ATOM      8  N   ASN A   1      10.481  29.392  59.914  0.00  0.00    -0.239 NA
ATOM      9  H   ASN A   1      10.464  28.451  60.357  0.00  0.00    +0.142 HD
ENDBRANCH   7   8
BRANCH   7  10
ATOM     10  C   ASN A   1       8.608  30.233  58.537  0.00  0.00    +0.225 C 
ATOM     11  O   ASN A   1       8.051  30.509  57.465  0.00  0.00    -0.287 OA
ENDBRANCH   7  10
ENDBRANCH   1   7
TORSDOF 4
REMARK  Name = ../refined-set-2016/2xpc/2xpc_pocket.pdb
REMARK  246 active torsions:
REMARK  status: ('A' for Active; 'I' for Inactive)
REMARK    1  A    between atoms: _1  and  _3
REMARK    2  A    between atoms: _3  and  _4
REMARK    3  A    between atoms: _3  and  _6
REMARK    4  A    between atoms: _6  and  _7
REMARK    5  A    between atoms: _10  and  _12
REMARK    6  A    between atoms: _12  and  _13
REMARK    7  A    between atoms: _12  and  _15
REMARK    8  A    between atoms: _15  and  _16
REMARK    9  A    between atoms: _19  and  _21
REMARK   10  A    between atoms: _21  and  _22
REMARK   11  A    between atoms: _24  and  _26
REMARK   12  A    between atoms: _26  and  _27
REMARK   13  A    between atoms: _26  and  _29
REMARK   14  A    between atoms: _29  and  _30
REMARK   15  A    between atoms: _33  and  _35
REMARK   16  A    between atoms: _35  and  _36
REMARK   17  A    between atoms: _38  and  _40
REMARK   18  A    between atoms: _40  and  _41
REMARK   19  A    between atoms: _40  and  _43
REMARK   20  A    between atoms: _43  and  _44
REMARK   21  A    between atoms: _47  and  _49
REMARK   22  A    between atoms: _49  and  _50
REMARK   23  A    between atoms: _49  and  _52
REMARK   24  A    between atoms: _52  and  _53
REMARK   25  A    between atoms: _56  and  _58
REMARK   26  A    between atoms: _58  and  _59
REMARK   27  A    between atoms: _61  and  _63
REMARK   28  A    between atoms: _63  and  _64
REMARK   29  A    between atoms: _63  and  _66
REMARK   30  A    between atoms: _66  and  _67
REMARK   31  A    between atoms: _67  and  _68
REMARK   32  A    between atoms: _70  and  _72
REMARK   33  A    between atoms: _72  and  _73
REMARK   34  A    between atoms: _72  and  _75
REMARK   35  A    between atoms: _75  and  _76
REMARK   36  A    between atoms: _79  and  _81
REMARK   37  A    between atoms: _81  and  _82
REMARK   38  A    between atoms: _81  and  _84
REMARK   39  A    between atoms: _84  and  _85
REMARK   40  A    between atoms: _88  and  _90
REMARK   41  A    between atoms: _90  and  _91
REMARK   42  A    between atoms: _90  and  _93
REMARK   43  A    between atoms: _93  and  _94
REMARK   44  A    between atoms: _94  and  _95
REMARK   45  A    between atoms: _95  and  _96
REMARK   46  A    between atoms: _106  and  _107
REMARK   47  A    between atoms: _113  and  _114
REMARK   48  A    between atoms: _119  and  _121
REMARK   49  A    between atoms: _121  and  _122
REMARK   50  A    between atoms: _121  and  _124
REMARK   51  A    between atoms: _124  and  _125
REMARK   52  A    between atoms: _130  and  _132
REMARK   53  A    between atoms: _132  and  _133
REMARK   54  A    between atoms: _135  and  _137
REMARK   55  A    between atoms: _137  and  _138
REMARK   56  A    between atoms: _137  and  _140
REMARK   57  A    between atoms: _140  and  _141
REMARK   58  A    between atoms: _143  and  _145
REMARK   59  A    between atoms: _145  and  _146
REMARK   60  A    between atoms: _145  and  _148
REMARK   61  A    between atoms: _148  and  _149
REMARK   62  A    between atoms: _152  and  _154
REMARK   63  A    between atoms: _154  and  _155
REMARK   64  A    between atoms: _154  and  _157
REMARK   65  A    between atoms: _157  and  _158
REMARK   66  A    between atoms: _163  and  _165
REMARK   67  A    between atoms: _165  and  _166
REMARK   68  A    between atoms: _169  and  _171
REMARK   69  A    between atoms: _171  and  _172
REMARK   70  A    between atoms: _171  and  _174
REMARK   71  A    between atoms: _174  and  _175
REMARK   72  A    between atoms: _178  and  _179
REMARK   73  A    between atoms: _184  and  _186
REMARK   74  A    between atoms: _186  and  _187
REMARK   75  A    between atoms: _189  and  _191
REMARK   76  A    between atoms: _191  and  _192
REMARK   77  A    between atoms: _191  and  _194
REMARK   78  A    between atoms: _194  and  _195
REMARK   79  A    between atoms: _198  and  _200
REMARK   80  A    between atoms: _200  and  _201
REMARK   81  A    between atoms: _204  and  _206
REMARK   82  A    between atoms: _206  and  _207
REMARK   83  A    between atoms: _206  and  _209
REMARK   84  A    between atoms: _209  and  _210
REMARK   85  A    between atoms: _215  and  _217
REMARK   86  A    between atoms: _217  and  _218
REMARK   87  A    between atoms: _217  and  _220
REMARK   88  A    between atoms: _220  and  _221
REMARK   89  A    between atoms: _223  and  _225
REMARK   90  A    between atoms: _225  and  _226
REMARK   91  A    between atoms: _225  and  _228
REMARK   92  A    between atoms: _228  and  _229
REMARK   93  A    between atoms: _229  and  _230
REMARK   94  A    between atoms: _230  and  _231
REMARK   95  A    between atoms: _231  and  _232
REMARK   96  A    between atoms: _236  and  _238
REMARK   97  A    between atoms: _238  and  _239
REMARK   98  A    between atoms: _238  and  _241
REMARK   99  A    between atoms: _241  and  _242
REMARK  100  A    between atoms: _247  and  _249
REMARK  101  A    between atoms: _249  and  _250
REMARK  102  A    between atoms: _249  and  _252
REMARK  103  A    between atoms: _252  and  _253
REMARK  104  A    between atoms: _255  and  _257
REMARK  105  A    between atoms: _257  and  _258
REMARK  106  A    between atoms: _257  and  _260
REMARK  107  A    between atoms: _260  and  _261
REMARK  108  A    between atoms: _263  and  _265
REMARK  109  A    between atoms: _265  and  _266
REMARK  110  A    between atoms: _265  and  _268
REMARK  111  A    between atoms: _268  and  _269
REMARK  112  A    between atoms: _275  and  _277
REMARK  113  A    between atoms: _277  and  _278
REMARK  114  A    between atoms: _277  and  _280
REMARK  115  A    between atoms: _280  and  _281
REMARK  116  A    between atoms: _281  and  _282
REMARK  117  A    between atoms: _287  and  _289
REMARK  118  A    between atoms: _289  and  _290
REMARK  119  A    between atoms: _289  and  _292
REMARK  120  A    between atoms: _292  and  _293
REMARK  121  A    between atoms: _296  and  _298
REMARK  122  A    between atoms: _298  and  _299
REMARK  123  A    between atoms: _298  and  _301
REMARK  124  A    between atoms: _301  and  _302
REMARK  125  A    between atoms: _307  and  _309
REMARK  126  A    between atoms: _309  and  _310
REMARK  127  A    between atoms: _309  and  _312
REMARK  128  A    between atoms: _312  and  _313
REMARK  129  A    between atoms: _313  and  _314
REMARK  130  A    between atoms: _316  and  _318
REMARK  131  A    between atoms: _318  and  _319
REMARK  132  A    between atoms: _318  and  _321
REMARK  133  A    between atoms: _321  and  _322
REMARK  134  A    between atoms: _325  and  _327
REMARK  135  A    between atoms: _327  and  _328
REMARK  136  A    between atoms: _327  and  _330
REMARK  137  A    between atoms: _330  and  _331
REMARK  138  A    between atoms: _331  and  _332
REMARK  139  A    between atoms: _332  and  _333
REMARK  140  A    between atoms: _342  and  _344
REMARK  141  A    between atoms: _344  and  _345
REMARK  142  A    between atoms: _344  and  _347
REMARK  143  A    between atoms: _347  and  _348
REMARK  144  A    between atoms: _353  and  _354
REMARK  145  A    between atoms: _356  and  _358
REMARK  146  A    between atoms: _358  and  _359
REMARK  147  A    between atoms: _358  and  _365
REMARK  148  A    between atoms: _359  and  _360
REMARK  149  A    between atoms: _360  and  _361
REMARK  150  A    between atoms: _361  and  _362
REMARK  151  A    between atoms: _362  and  _363
REMARK  152  A    between atoms: _370  and  _372
REMARK  153  A    between atoms: _372  and  _373
REMARK  154  A    between atoms: _372  and  _375
REMARK  155  A    between atoms: _375  and  _376
REMARK  156  A    between atoms: _378  and  _380
REMARK  157  A    between atoms: _380  and  _381
REMARK  158  A    between atoms: _380  and  _383
REMARK  159  A    between atoms: _383  and  _384
REMARK  160  A    between atoms: _384  and  _385
REMARK  161  A    between atoms: _385  and  _386
REMARK  162  A    between atoms: _386  and  _387
REMARK  163  A    between atoms: _391  and  _393
REMARK  164  A    between atoms: _393  and  _394
REMARK  165  A    between atoms: _397  and  _399
REMARK  166  A    between atoms: _399  and  _400
REMARK  167  A    between atoms: _399  and  _402
REMARK  168  A    between atoms: _402  and  _403
REMARK  169  A    between atoms: _406  and  _408
REMARK  170  A    between atoms: _408  and  _409
REMARK  171  A    between atoms: _408  and  _411
REMARK  172  A    between atoms: _411  and  _412
REMARK  173  A    between atoms: _417  and  _419
REMARK  174  A    between atoms: _419  and  _420
REMARK  175  A    between atoms: _419  and  _422
REMARK  176  A    between atoms: _422  and  _423
REMARK  177  A    between atoms: _426  and  _428
REMARK  178  A    between atoms: _428  and  _429
REMARK  179  A    between atoms: _431  and  _433
REMARK  180  A    between atoms: _433  and  _434
REMARK  181  A    between atoms: _433  and  _436
REMARK  182  A    between atoms: _436  and  _437
REMARK  183  A    between atoms: _437  and  _438
REMARK  184  A    between atoms: _438  and  _439
REMARK  185  A    between atoms: _439  and  _440
REMARK  186  A    between atoms: _444  and  _446
REMARK  187  A    between atoms: _446  and  _447
REMARK  188  A    between atoms: _450  and  _452
REMARK  189  A    between atoms: _452  and  _453
REMARK  190  A    between atoms: _452  and  _455
REMARK  191  A    between atoms: _457  and  _459
REMARK  192  A    between atoms: _459  and  _460
REMARK  193  A    between atoms: _463  and  _465
REMARK  194  A    between atoms: _465  and  _466
REMARK  195  A    between atoms: _465  and  _468
REMARK  196  A    between atoms: _468  and  _469
REMARK  197  A    between atoms: _471  and  _473
REMARK  198  A    between atoms: _473  and  _474
REMARK  199  A    between atoms: _473  and  _476
REMARK  200  A    between atoms: _476  and  _477
REMARK  201  A    between atoms: _480  and  _482
REMARK  202  A    between atoms: _482  and  _483
REMARK  203  A    between atoms: _482  and  _485
REMARK  204  A    between atoms: _485  and  _486
REMARK  205  A    between atoms: _489  and  _491
REMARK  206  A    between atoms: _491  and  _492
REMARK  207  A    between atoms: _491  and  _494
REMARK  208  A    between atoms: _494  and  _495
REMARK  209  A    between atoms: _495  and  _496
REMARK  210  A    between atoms: _501  and  _503
REMARK  211  A    between atoms: _503  and  _504
REMARK  212  A    between atoms: _503  and  _506
REMARK  213  A    between atoms: _506  and  _507
REMARK  214  A    between atoms: _513  and  _515
REMARK  215  A    between atoms: _515  and  _516
REMARK  216  A    between atoms: _515  and  _518
REMARK  217  A    between atoms: _518  and  _519
REMARK  218  A    between atoms: _519  and  _520
REMARK  219  A    between atoms: _520  and  _521
REMARK  220  A    between atoms: _521  and  _522
REMARK  221  A    between atoms: _526  and  _528
REMARK  222  A    between atoms: _528  and  _529
REMARK  223  A    between atoms: _528  and  _531
REMARK  224  A    between atoms: _531  and  _532
REMARK  225  A    between atoms: _537  and  _539
REMARK  226  A    between atoms: _539  and  _540
REMARK  227  A    between atoms: _539  and  _542
REMARK  228  A    between atoms: _542  and  _543
REMARK  229  A    between atoms: _549  and  _551
REMARK  230  A    between atoms: _551  and  _552
REMARK  231  A    between atoms: _551  and  _554
REMARK  232  A    between atoms: _554  and  _555
REMARK  233  A    between atoms: _555  and  _556
REMARK  234  A    between atoms: _559  and  _561
REMARK  235  A    between atoms: _561  and  _562
REMARK  236  A    between atoms: _561  and  _564
REMARK  237  A    between atoms: _564  and  _565
REMARK  238  A    between atoms: _565  and  _566
REMARK  239  A    between atoms: _571  and  _573
REMARK  240  A    between atoms: _573  and  _574
REMARK  241  A    between atoms: _573  and  _576
REMARK  242  A    between atoms: _576  and  _577
REMARK  243  A    between atoms: _577  and  _578
REMARK  244  A    between atoms: _578  and  _579
REMARK  245  A    between atoms: _588  and  _590
REMARK  246  A    between atoms: _590  and  _591
REMARK                            x       y       z     vdW  Elec       q    Type
REMARK                         _______ _______ _______ _____ _____    ______ ____
ROOT
ATOM      1  CA  PHE A   3      15.917  23.631  53.056  0.00  0.00    +0.153 C 
ENDROOT
BRANCH   1   4
ATOM      2  C   SER A   2      14.779  21.735  54.042  0.00  0.00    +0.243 C 
ATOM      3  O   SER A   2      15.899  21.237  54.346  0.00  0.00    -0.273 OA
ATOM      4  N   PHE A   3      14.686  22.903  53.396  0.00  0.00    -0.297 N 
ATOM      5  H   PHE A   3      13.756  23.290  53.138  0.00  0.00    +0.150 HD
BRANCH   2   6
ATOM      6  CA  SER A   2      13.481  20.955  54.339  0.00  0.00    +0.178 C 
BRANCH   6   9
ATOM      7  C   SER A   1      12.688  22.744  55.763  0.00  0.00    +0.241 C 
ATOM      8  O   SER A   1      13.712  22.682  56.453  0.00  0.00    -0.274 OA
ATOM      9  N   SER A   2      12.444  21.925  54.751  0.00  0.00    -0.295 N 
ATOM     10  H   SER A   2      11.533  21.964  54.251  0.00  0.00    +0.150 HD
BRANCH   7  11
ATOM     11  CA  SER A   1      11.619  23.789  56.054  0.00  0.00    +0.174 C 
BRANCH  11  12
ATOM     12  N   SER A   1      11.753  24.346  57.386  0.00  0.00    -0.236 NA
ATOM     13  H   SER A   1      12.327  25.200  57.535  0.00  0.00    +0.142 HD
ENDBRANCH  11  12
BRANCH  11  14
ATOM     14  CB  SER A   1      11.759  24.899  55.003  0.00  0.00    +0.163 C 
BRANCH  14  15
ATOM     15  OG  SER A   1      13.112  25.398  54.990  0.00  0.00    -0.380 OA
ATOM     16  H   SER A   1      13.192  26.113  54.310  0.00  0.00    +0.211 HD
ENDBRANCH  14  15
ENDBRANCH  11  14
ENDBRANCH   7  11
ENDBRANCH   6   9
BRANCH   6  17
ATOM     17  CB  SER A   2      13.028  20.144  53.110  0.00  0.00    +0.166 C 
BRANCH  17  18
ATOM     18  OG  SER A   2      12.860  20.953  51.961  0.00  0.00    -0.380 OA
ATOM     19  H   SER A   2      12.174  21.643  52.142  0.00  0.00    +0.211 HD
ENDBRANCH  17  18
ENDBRANCH   6  17
ENDBRANCH   2   6
ENDBRANCH   1   4
BRANCH   1  20
ATOM     20  C   PHE A   3      16.676  24.057  54.304  0.00  0.00    +0.241 C 
ATOM     21  N   GLN A   4      15.957  24.572  55.307  0.00  0.00    -0.298 N 
ATOM     22  H   GLN A   4      14.931  24.708  55.203  0.00  0.00    +0.150 HD
ATOM     23  O   PHE A   3      17.929  23.964  54.358  0.00  0.00    -0.273 OA
BRANCH  21  24
ATOM     24  CA  GLN A   4      16.637  24.945  56.564  0.00  0.00    +0.137 C 
BRANCH  24  25
ATOM     25  C   GLN A   4      17.287  23.731  57.221  0.00  0.00    +0.227 C 
ATOM     26  O   GLN A   4      18.382  23.828  57.778  0.00  0.00    -0.286 OA
ENDBRANCH  24  25
BRANCH  24  27
ATOM     27  CB  GLN A   4      15.627  25.581  57.543  0.00  0.00    +0.037 C 
BRANCH  27  28
ATOM     28  CG  GLN A   4      15.186  26.974  57.119  0.00  0.00    +0.087 C 
BRANCH  28  29
ATOM     29  CD  GLN A   4      13.997  27.450  57.953  0.00  0.00    +0.219 C 
ATOM     30  NE2 GLN A   4      13.975  28.735  58.315  0.00  0.00    -0.329 N 
ATOM     31 HE21 GLN A   4      13.176  29.106  58.868  0.00  0.00    +0.145 HD
ATOM     32 HE22 GLN A   4      14.757  29.365  58.044  0.00  0.00    +0.145 HD
ATOM     33  OE1 GLN A   4      13.088  26.663  58.254  0.00  0.00    -0.275 OA
ENDBRANCH  28  29
ENDBRANCH  27  28
ENDBRANCH  24  27
ENDBRANCH  21  24
ENDBRANCH   1  20
BRANCH   1  34
ATOM     34  CB  PHE A   3      15.597  24.884  52.239  0.00  0.00    +0.055 C 
BRANCH  34  35
ATOM     35  CG  PHE A   3      14.825  24.633  50.975  0.00  0.00    -0.020 A 
ATOM     36  CD2 PHE A   3      14.046  25.668  50.453  0.00  0.00    -0.004 A 
ATOM     37  CE2 PHE A   3      13.375  25.500  49.243  0.00  0.00    -0.000 A 
ATOM     38  CZ  PHE A   3      13.489  24.279  48.558  0.00  0.00    -0.000 A 
ATOM     39  CE1 PHE A   3      14.270  23.266  49.056  0.00  0.00    -0.000 A 
ATOM     40  CD1 PHE A   3      14.973  23.452  50.234  0.00  0.00    -0.004 A 
ENDBRANCH  34  35
ENDBRANCH   1  34
TORSDOF 17
REMARK  Name = ../refined-set-2016/2xpc/2xpc_pocket.pdb
REMARK  246 active torsions:
REMARK  status: ('A' for Active; 'I' for Inactive)
REMARK    1  A    between atoms: _1  and  _3
REMARK    2  A    between atoms: _3  and  _4
REMARK    3  A    between atoms: _3  and  _6
REMARK    4  A    between atoms: _6  and  _7
REMARK    5  A    between atoms: _10  and  _12
REMARK    6  A    between atoms: _12  and  _13
REMARK    7  A    between atoms: _12  and  _15
REMARK    8  A    between atoms: _15  and  _16
REMARK    9  A    between atoms: _19  and  _21
REMARK   10  A    between atoms: _21  and  _22
REMARK   11  A    between atoms: _24  and  _26
REMARK   12  A    between atoms: _26  and  _27
REMARK   13  A    between atoms: _26  and  _29
REMARK   14  A    between atoms: _29  and  _30
REMARK   15  A    between atoms: _33  and  _35
REMARK   16  A    between atoms: _35  and  _36
REMARK   17  A    between atoms: _38  and  _40
REMARK   18  A    between atoms: _40  and  _41
REMARK   19  A    between atoms: _40  and  _43
REMARK   20  A    between atoms: _43  and  _44
REMARK   21  A    between atoms: _47  and  _49
REMARK   22  A    between atoms: _49  and  _50
REMARK   23  A    between atoms: _49  and  _52
REMARK   24  A    between atoms: _52  and  _53
REMARK   25  A    between atoms: _56  and  _58
REMARK   26  A    between atoms: _58  and  _59
REMARK   27  A    between atoms: _61  and  _63
REMARK   28  A    between atoms: _63  and  _64
REMARK   29  A    between atoms: _63  and  _66
REMARK   30  A    between atoms: _66  and  _67
REMARK   31  A    between atoms: _67  and  _68
REMARK   32  A    between atoms: _70  and  _72
REMARK   33  A    between atoms: _72  and  _73
REMARK   34  A    between atoms: _72  and  _75
REMARK   35  A    between atoms: _75  and  _76
REMARK   36  A    between atoms: _79  and  _81
REMARK   37  A    between atoms: _81  and  _82
REMARK   38  A    between atoms: _81  and  _84
REMARK   39  A    between atoms: _84  and  _85
REMARK   40  A    between atoms: _88  and  _90
REMARK   41  A    between atoms: _90  and  _91
REMARK   42  A    between atoms: _90  and  _93
REMARK   43  A    between atoms: _93  and  _94
REMARK   44  A    between atoms: _94  and  _95
REMARK   45  A    between atoms: _95  and  _96
REMARK   46  A    between atoms: _106  and  _107
REMARK   47  A    between atoms: _113  and  _114
REMARK   48  A    between atoms: _119  and  _121
REMARK   49  A    between atoms: _121  and  _122
REMARK   50  A    between atoms: _121  and  _124
REMARK   51  A    between atoms: _124  and  _125
REMARK   52  A    between atoms: _130  and  _132
REMARK   53  A    between atoms: _132  and  _133
REMARK   54  A    between atoms: _135  and  _137
REMARK   55  A    between atoms: _137  and  _138
REMARK   56  A    between atoms: _137  and  _140
REMARK   57  A    between atoms: _140  and  _141
REMARK   58  A    between atoms: _143  and  _145
REMARK   59  A    between atoms: _145  and  _146
REMARK   60  A    between atoms: _145  and  _148
REMARK   61  A    between atoms: _148  and  _149
REMARK   62  A    between atoms: _152  and  _154
REMARK   63  A    between atoms: _154  and  _155
REMARK   64  A    between atoms: _154  and  _157
REMARK   65  A    between atoms: _157  and  _158
REMARK   66  A    between atoms: _163  and  _165
REMARK   67  A    between atoms: _165  and  _166
REMARK   68  A    between atoms: _169  and  _171
REMARK   69  A    between atoms: _171  and  _172
REMARK   70  A    between atoms: _171  and  _174
REMARK   71  A    between atoms: _174  and  _175
REMARK   72  A    between atoms: _178  and  _179
REMARK   73  A    between atoms: _184  and  _186
REMARK   74  A    between atoms: _186  and  _187
REMARK   75  A    between atoms: _189  and  _191
REMARK   76  A    between atoms: _191  and  _192
REMARK   77  A    between atoms: _191  and  _194
REMARK   78  A    between atoms: _194  and  _195
REMARK   79  A    between atoms: _198  and  _200
REMARK   80  A    between atoms: _200  and  _201
REMARK   81  A    between atoms: _204  and  _206
REMARK   82  A    between atoms: _206  and  _207
REMARK   83  A    between atoms: _206  and  _209
REMARK   84  A    between atoms: _209  and  _210
REMARK   85  A    between atoms: _215  and  _217
REMARK   86  A    between atoms: _217  and  _218
REMARK   87  A    between atoms: _217  and  _220
REMARK   88  A    between atoms: _220  and  _221
REMARK   89  A    between atoms: _223  and  _225
REMARK   90  A    between atoms: _225  and  _226
REMARK   91  A    between atoms: _225  and  _228
REMARK   92  A    between atoms: _228  and  _229
REMARK   93  A    between atoms: _229  and  _230
REMARK   94  A    between atoms: _230  and  _231
REMARK   95  A    between atoms: _231  and  _232
REMARK   96  A    between atoms: _236  and  _238
REMARK   97  A    between atoms: _238  and  _239
REMARK   98  A    between atoms: _238  and  _241
REMARK   99  A    between atoms: _241  and  _242
REMARK  100  A    between atoms: _247  and  _249
REMARK  101  A    between atoms: _249  and  _250
REMARK  102  A    between atoms: _249  and  _252
REMARK  103  A    between atoms: _252  and  _253
REMARK  104  A    between atoms: _255  and  _257
REMARK  105  A    between atoms: _257  and  _258
REMARK  106  A    between atoms: _257  and  _260
REMARK  107  A    between atoms: _260  and  _261
REMARK  108  A    between atoms: _263  and  _265
REMARK  109  A    between atoms: _265  and  _266
REMARK  110  A    between atoms: _265  and  _268
REMARK  111  A    between atoms: _268  and  _269
REMARK  112  A    between atoms: _275  and  _277
REMARK  113  A    between atoms: _277  and  _278
REMARK  114  A    between atoms: _277  and  _280
REMARK  115  A    between atoms: _280  and  _281
REMARK  116  A    between atoms: _281  and  _282
REMARK  117  A    between atoms: _287  and  _289
REMARK  118  A    between atoms: _289  and  _290
REMARK  119  A    between atoms: _289  and  _292
REMARK  120  A    between atoms: _292  and  _293
REMARK  121  A    between atoms: _296  and  _298
REMARK  122  A    between atoms: _298  and  _299
REMARK  123  A    between atoms: _298  and  _301
REMARK  124  A    between atoms: _301  and  _302
REMARK  125  A    between atoms: _307  and  _309
REMARK  126  A    between atoms: _309  and  _310
REMARK  127  A    between atoms: _309  and  _312
REMARK  128  A    between atoms: _312  and  _313
REMARK  129  A    between atoms: _313  and  _314
REMARK  130  A    between atoms: _316  and  _318
REMARK  131  A    between atoms: _318  and  _319
REMARK  132  A    between atoms: _318  and  _321
REMARK  133  A    between atoms: _321  and  _322
REMARK  134  A    between atoms: _325  and  _327
REMARK  135  A    between atoms: _327  and  _328
REMARK  136  A    between atoms: _327  and  _330
REMARK  137  A    between atoms: _330  and  _331
REMARK  138  A    between atoms: _331  and  _332
REMARK  139  A    between atoms: _332  and  _333
REMARK  140  A    between atoms: _342  and  _344
REMARK  141  A    between atoms: _344  and  _345
REMARK  142  A    between atoms: _344  and  _347
REMARK  143  A    between atoms: _347  and  _348
REMARK  144  A    between atoms: _353  and  _354
REMARK  145  A    between atoms: _356  and  _358
REMARK  146  A    between atoms: _358  and  _359
REMARK  147  A    between atoms: _358  and  _365
REMARK  148  A    between atoms: _359  and  _360
REMARK  149  A    between atoms: _360  and  _361
REMARK  150  A    between atoms: _361  and  _362
REMARK  151  A    between atoms: _362  and  _363
REMARK  152  A    between atoms: _370  and  _372
REMARK  153  A    between atoms: _372  and  _373
REMARK  154  A    between atoms: _372  and  _375
REMARK  155  A    between atoms: _375  and  _376
REMARK  156  A    between atoms: _378  and  _380
REMARK  157  A    between atoms: _380  and  _381
REMARK  158  A    between atoms: _380  and  _383
REMARK  159  A    between atoms: _383  and  _384
REMARK  160  A    between atoms: _384  and  _385
REMARK  161  A    between atoms: _385  and  _386
REMARK  162  A    between atoms: _386  and  _387
REMARK  163  A    between atoms: _391  and  _393
REMARK  164  A    between atoms: _393  and  _394
REMARK  165  A    between atoms: _397  and  _399
REMARK  166  A    between atoms: _399  and  _400
REMARK  167  A    between atoms: _399  and  _402
REMARK  168  A    between atoms: _402  and  _403
REMARK  169  A    between atoms: _406  and  _408
REMARK  170  A    between atoms: _408  and  _409
REMARK  171  A    between atoms: _408  and  _411
REMARK  172  A    between atoms: _411  and  _412
REMARK  173  A    between atoms: _417  and  _419
REMARK  174  A    between atoms: _419  and  _420
REMARK  175  A    between atoms: _419  and  _422
REMARK  176  A    between atoms: _422  and  _423
REMARK  177  A    between atoms: _426  and  _428
REMARK  178  A    between atoms: _428  and  _429
REMARK  179  A    between atoms: _431  and  _433
REMARK  180  A    between atoms: _433  and  _434
REMARK  181  A    between atoms: _433  and  _436
REMARK  182  A    between atoms: _436  and  _437
REMARK  183  A    between atoms: _437  and  _438
REMARK  184  A    between atoms: _438  and  _439
REMARK  185  A    between atoms: _439  and  _440
REMARK  186  A    between atoms: _444  and  _446
REMARK  187  A    between atoms: _446  and  _447
REMARK  188  A    between atoms: _450  and  _452
REMARK  189  A    between atoms: _452  and  _453
REMARK  190  A    between atoms: _452  and  _455
REMARK  191  A    between atoms: _457  and  _459
REMARK  192  A    between atoms: _459  and  _460
REMARK  193  A    between atoms: _463  and  _465
REMARK  194  A    between atoms: _465  and  _466
REMARK  195  A    between atoms: _465  and  _468
REMARK  196  A    between atoms: _468  and  _469
REMARK  197  A    between atoms: _471  and  _473
REMARK  198  A    between atoms: _473  and  _474
REMARK  199  A    between atoms: _473  and  _476
REMARK  200  A    between atoms: _476  and  _477
REMARK  201  A    between atoms: _480  and  _482
REMARK  202  A    between atoms: _482  and  _483
REMARK  203  A    between atoms: _482  and  _485
REMARK  204  A    between atoms: _485  and  _486
REMARK  205  A    between atoms: _489  and  _491
REMARK  206  A    between atoms: _491  and  _492
REMARK  207  A    between atoms: _491  and  _494
REMARK  208  A    between atoms: _494  and  _495
REMARK  209  A    between atoms: _495  and  _496
REMARK  210  A    between atoms: _501  and  _503
REMARK  211  A    between atoms: _503  and  _504
REMARK  212  A    between atoms: _503  and  _506
REMARK  213  A    between atoms: _506  and  _507
REMARK  214  A    between atoms: _513  and  _515
REMARK  215  A    between atoms: _515  and  _516
REMARK  216  A    between atoms: _515  and  _518
REMARK  217  A    between atoms: _518  and  _519
REMARK  218  A    between atoms: _519  and  _520
REMARK  219  A    between atoms: _520  and  _521
REMARK  220  A    between atoms: _521  and  _522
REMARK  221  A    between atoms: _526  and  _528
REMARK  222  A    between atoms: _528  and  _529
REMARK  223  A    between atoms: _528  and  _531
REMARK  224  A    between atoms: _531  and  _532
REMARK  225  A    between atoms: _537  and  _539
REMARK  226  A    between atoms: _539  and  _540
REMARK  227  A    between atoms: _539  and  _542
REMARK  228  A    between atoms: _542  and  _543
REMARK  229  A    between atoms: _549  and  _551
REMARK  230  A    between atoms: _551  and  _552
REMARK  231  A    between atoms: _551  and  _554
REMARK  232  A    between atoms: _554  and  _555
REMARK  233  A    between atoms: _555  and  _556
REMARK  234  A    between atoms: _559  and  _561
REMARK  235  A    between atoms: _561  and  _562
REMARK  236  A    between atoms: _561  and  _564
REMARK  237  A    between atoms: _564  and  _565
REMARK  238  A    between atoms: _565  and  _566
REMARK  239  A    between atoms: _571  and  _573
REMARK  240  A    between atoms: _573  and  _574
REMARK  241  A    between atoms: _573  and  _576
REMARK  242  A    between atoms: _576  and  _577
REMARK  243  A    between atoms: _577  and  _578
REMARK  244  A    between atoms: _578  and  _579
REMARK  245  A    between atoms: _588  and  _590
REMARK  246  A    between atoms: _590  and  _591
REMARK                            x       y       z     vdW  Elec       q    Type
REMARK                         _______ _______ _______ _____ _____    ______ ____
ROOT
ATOM      1  C   MET A   3      12.493  19.943  42.311  0.00  0.00    +0.241 C 
ATOM      2  N   ASP A   4      12.264  21.247  42.134  0.00  0.00    -0.297 N 
ATOM      3  H   ASP A   4      11.362  21.657  42.449  0.00  0.00    +0.150 HD
ATOM      4  O   MET A   3      13.501  19.385  41.863  0.00  0.00    -0.273 OA
ENDROOT
BRANCH   2   5
ATOM      5  CA  ASP A   4      13.267  22.106  41.502  0.00  0.00    +0.160 C 
BRANCH   5   6
ATOM      6  C   ASP A   4      14.575  22.208  42.279  0.00  0.00    +0.241 C 
ATOM      7  N   ARG A   5      14.548  21.796  43.543  0.00  0.00    -0.298 N 
ATOM      8  H   ARG A   5      13.660  21.393  43.904  0.00  0.00    +0.150 HD
ATOM      9  O   ASP A   4      15.579  22.624  41.703  0.00  0.00    -0.273 OA
BRANCH   7  10
ATOM     10  CA  ARG A   5      15.695  21.874  44.465  0.00  0.00    +0.137 C 
BRANCH  10  11
ATOM     11  C   ARG A   5      16.181  20.483  44.850  0.00  0.00    +0.227 C 
ATOM     12  O   ARG A   5      17.193  20.383  45.556  0.00  0.00    -0.286 OA
ENDBRANCH  10  11
BRANCH  10  13
ATOM     13  CB  ARG A   5      15.309  22.615  45.759  0.00  0.00    +0.031 C 
BRANCH  13  14
ATOM     14  CG  ARG A   5      15.500  24.132  45.653  0.00  0.00    +0.045 C 
BRANCH  14  15
ATOM     15  CD  ARG A   5      16.981  24.512  45.824  0.00  0.00    +0.174 C 
BRANCH  15  16
ATOM     16  NE  ARG A   5      17.491  24.262  47.174  0.00  0.00    -0.265 N 
ATOM     17  CZ  ARG A   5      17.437  25.155  48.180  0.00  0.00    +0.342 C 
ATOM     18  NH2 ARG A   5      17.957  24.862  49.373  0.00  0.00    -0.292 N 
ATOM     19 HH21 ARG A   5      17.911  25.557  50.145  0.00  0.00    +0.255 HD
ATOM     20 HH22 ARG A   5      18.408  23.938  49.531  0.00  0.00    +0.255 HD
ATOM     21  NH1 ARG A   5      16.875  26.328  47.967  0.00  0.00    -0.292 N 
ATOM     22 HH11 ARG A   5      16.826  27.028  48.734  0.00  0.00    +0.255 HD
ATOM     23 HH12 ARG A   5      16.481  26.553  47.031  0.00  0.00    +0.255 HD
ATOM     24  HE  ARG A   5      17.922  23.336  47.368  0.00  0.00    +0.259 HD
ENDBRANCH  15  16
ENDBRANCH  14  15
ENDBRANCH  13  14
ENDBRANCH  10  13
ENDBRANCH   7  10
ENDBRANCH   5   6
BRANCH   5  25
ATOM     25  CB  ASP A   4      12.696  23.505  41.180  0.00  0.00    +0.143 C 
BRANCH  25  26
ATOM     26  CG  ASP A   4      12.186  24.245  42.433  0.00  0.00    +0.367 C 
ATOM     27  OD2 ASP A   4      11.843  23.610  43.450  0.00  0.00    -0.246 OA
ATOM     28  OD1 ASP A   4      12.042  25.486  42.338  0.00  0.00    -0.246 OA
ENDBRANCH  25  26
ENDBRANCH   5  25
ENDBRANCH   2   5
BRANCH   1  29
ATOM     29  CA  MET A   3      11.459  19.153  43.089  0.00  0.00    +0.149 C 
BRANCH  29  32
ATOM     30  C   HIS A   2      11.268  20.645  44.965  0.00  0.00    +0.241 C 
ATOM     31  O   HIS A   2      12.479  20.616  45.173  0.00  0.00    -0.273 OA
ATOM     32  N   MET A   3      10.666  20.019  43.956  0.00  0.00    -0.297 N 
ATOM     33  H   MET A   3       9.647  20.145  43.788  0.00  0.00    +0.150 HD
BRANCH  30  34
ATOM     34  CA  HIS A   2      10.398  21.459  45.889  0.00  0.00    +0.155 C 
BRANCH  34  37
ATOM     35  C   ASP A   1       8.769  19.736  46.431  0.00  0.00    +0.239 C 
ATOM     36  O   ASP A   1       9.654  18.896  46.651  0.00  0.00    -0.274 OA
ATOM     37  N   HIS A   2       9.035  20.958  45.994  0.00  0.00    -0.297 N 
ATOM     38  H   HIS A   2       8.247  21.578  45.718  0.00  0.00    +0.150 HD
BRANCH  35  39
ATOM     39  CA  ASP A   1       7.302  19.392  46.632  0.00  0.00    +0.156 C 
BRANCH  39  40
ATOM     40  N   ASP A   1       7.145  17.927  46.621  0.00  0.00    -0.238 NA
ATOM     41  H   ASP A   1       7.982  17.340  46.813  0.00  0.00    +0.142 HD
ENDBRANCH  39  40
BRANCH  39  42
ATOM     42  CB  ASP A   1       6.748  19.956  47.959  0.00  0.00    +0.140 C 
BRANCH  42  43
ATOM     43  CG  ASP A   1       6.449  21.458  47.909  0.00  0.00    +0.367 C 
ATOM     44  OD2 ASP A   1       6.061  21.954  49.013  0.00  0.00    -0.246 OA
ATOM     45  OD1 ASP A   1       6.637  22.132  46.880  0.00  0.00    -0.246 OA
ENDBRANCH  42  43
ENDBRANCH  39  42
ENDBRANCH  35  39
ENDBRANCH  34  37
BRANCH  34  46
ATOM     46  CB  HIS A   2      11.042  21.573  47.284  0.00  0.00    +0.076 C 
BRANCH  46  47
ATOM     47  CG  HIS A   2      10.216  22.389  48.230  0.00  0.00    +0.082 A 
ATOM     48  CD2 HIS A   2       9.534  22.057  49.353  0.00  0.00    +0.115 A 
ATOM     49  NE2 HIS A   2       8.919  23.211  49.814  0.00  0.00    -0.221 NA
ATOM     50  CE1 HIS A   2       9.188  24.194  48.969  0.00  0.00    +0.199 A 
ATOM     51  ND1 HIS A   2       9.995  23.732  48.017  0.00  0.00    -0.227 NA
ENDBRANCH  46  47
ENDBRANCH  34  46
ENDBRANCH  30  34
ENDBRANCH  29  32
BRANCH  29  52
ATOM     52  CB  MET A   3      10.549  18.360  42.159  0.00  0.00    +0.041 C 
BRANCH  52  53
ATOM     53  CG  MET A   3       9.731  17.277  42.890  0.00  0.00    +0.060 C 
BRANCH  53  54
ATOM     54  SD  MET A   3      10.814  15.901  43.552  0.00  0.00    -0.139 S 
ATOM     55  CE  MET A   3      10.845  16.306  45.261  0.00  0.00    +0.069 C 
ENDBRANCH  53  54
ENDBRANCH  52  53
ENDBRANCH  29  52
ENDBRANCH   1  29
TORSDOF 23
REMARK  Name = ../refined-set-2016/2xpc/2xpc_pocket.pdb
REMARK  246 active torsions:
REMARK  status: ('A' for Active; 'I' for Inactive)
REMARK    1  A    between atoms: _1  and  _3
REMARK    2  A    between atoms: _3  and  _4
REMARK    3  A    between atoms: _3  and  _6
REMARK    4  A    between atoms: _6  and  _7
REMARK    5  A    between atoms: _10  and  _12
REMARK    6  A    between atoms: _12  and  _13
REMARK    7  A    between atoms: _12  and  _15
REMARK    8  A    between atoms: _15  and  _16
REMARK    9  A    between atoms: _19  and  _21
REMARK   10  A    between atoms: _21  and  _22
REMARK   11  A    between atoms: _24  and  _26
REMARK   12  A    between atoms: _26  and  _27
REMARK   13  A    between atoms: _26  and  _29
REMARK   14  A    between atoms: _29  and  _30
REMARK   15  A    between atoms: _33  and  _35
REMARK   16  A    between atoms: _35  and  _36
REMARK   17  A    between atoms: _38  and  _40
REMARK   18  A    between atoms: _40  and  _41
REMARK   19  A    between atoms: _40  and  _43
REMARK   20  A    between atoms: _43  and  _44
REMARK   21  A    between atoms: _47  and  _49
REMARK   22  A    between atoms: _49  and  _50
REMARK   23  A    between atoms: _49  and  _52
REMARK   24  A    between atoms: _52  and  _53
REMARK   25  A    between atoms: _56  and  _58
REMARK   26  A    between atoms: _58  and  _59
REMARK   27  A    between atoms: _61  and  _63
REMARK   28  A    between atoms: _63  and  _64
REMARK   29  A    between atoms: _63  and  _66
REMARK   30  A    between atoms: _66  and  _67
REMARK   31  A    between atoms: _67  and  _68
REMARK   32  A    between atoms: _70  and  _72
REMARK   33  A    between atoms: _72  and  _73
REMARK   34  A    between atoms: _72  and  _75
REMARK   35  A    between atoms: _75  and  _76
REMARK   36  A    between atoms: _79  and  _81
REMARK   37  A    between atoms: _81  and  _82
REMARK   38  A    between atoms: _81  and  _84
REMARK   39  A    between atoms: _84  and  _85
REMARK   40  A    between atoms: _88  and  _90
REMARK   41  A    between atoms: _90  and  _91
REMARK   42  A    between atoms: _90  and  _93
REMARK   43  A    between atoms: _93  and  _94
REMARK   44  A    between atoms: _94  and  _95
REMARK   45  A    between atoms: _95  and  _96
REMARK   46  A    between atoms: _106  and  _107
REMARK   47  A    between atoms: _113  and  _114
REMARK   48  A    between atoms: _119  and  _121
REMARK   49  A    between atoms: _121  and  _122
REMARK   50  A    between atoms: _121  and  _124
REMARK   51  A    between atoms: _124  and  _125
REMARK   52  A    between atoms: _130  and  _132
REMARK   53  A    between atoms: _132  and  _133
REMARK   54  A    between atoms: _135  and  _137
REMARK   55  A    between atoms: _137  and  _138
REMARK   56  A    between atoms: _137  and  _140
REMARK   57  A    between atoms: _140  and  _141
REMARK   58  A    between atoms: _143  and  _145
REMARK   59  A    between atoms: _145  and  _146
REMARK   60  A    between atoms: _145  and  _148
REMARK   61  A    between atoms: _148  and  _149
REMARK   62  A    between atoms: _152  and  _154
REMARK   63  A    between atoms: _154  and  _155
REMARK   64  A    between atoms: _154  and  _157
REMARK   65  A    between atoms: _157  and  _158
REMARK   66  A    between atoms: _163  and  _165
REMARK   67  A    between atoms: _165  and  _166
REMARK   68  A    between atoms: _169  and  _171
REMARK   69  A    between atoms: _171  and  _172
REMARK   70  A    between atoms: _171  and  _174
REMARK   71  A    between atoms: _174  and  _175
REMARK   72  A    between atoms: _178  and  _179
REMARK   73  A    between atoms: _184  and  _186
REMARK   74  A    between atoms: _186  and  _187
REMARK   75  A    between atoms: _189  and  _191
REMARK   76  A    between atoms: _191  and  _192
REMARK   77  A    between atoms: _191  and  _194
REMARK   78  A    between atoms: _194  and  _195
REMARK   79  A    between atoms: _198  and  _200
REMARK   80  A    between atoms: _200  and  _201
REMARK   81  A    between atoms: _204  and  _206
REMARK   82  A    between atoms: _206  and  _207
REMARK   83  A    between atoms: _206  and  _209
REMARK   84  A    between atoms: _209  and  _210
REMARK   85  A    between atoms: _215  and  _217
REMARK   86  A    between atoms: _217  and  _218
REMARK   87  A    between atoms: _217  and  _220
REMARK   88  A    between atoms: _220  and  _221
REMARK   89  A    between atoms: _223  and  _225
REMARK   90  A    between atoms: _225  and  _226
REMARK   91  A    between atoms: _225  and  _228
REMARK   92  A    between atoms: _228  and  _229
REMARK   93  A    between atoms: _229  and  _230
REMARK   94  A    between atoms: _230  and  _231
REMARK   95  A    between atoms: _231  and  _232
REMARK   96  A    between atoms: _236  and  _238
REMARK   97  A    between atoms: _238  and  _239
REMARK   98  A    between atoms: _238  and  _241
REMARK   99  A    between atoms: _241  and  _242
REMARK  100  A    between atoms: _247  and  _249
REMARK  101  A    between atoms: _249  and  _250
REMARK  102  A    between atoms: _249  and  _252
REMARK  103  A    between atoms: _252  and  _253
REMARK  104  A    between atoms: _255  and  _257
REMARK  105  A    between atoms: _257  and  _258
REMARK  106  A    between atoms: _257  and  _260
REMARK  107  A    between atoms: _260  and  _261
REMARK  108  A    between atoms: _263  and  _265
REMARK  109  A    between atoms: _265  and  _266
REMARK  110  A    between atoms: _265  and  _268
REMARK  111  A    between atoms: _268  and  _269
REMARK  112  A    between atoms: _275  and  _277
REMARK  113  A    between atoms: _277  and  _278
REMARK  114  A    between atoms: _277  and  _280
REMARK  115  A    between atoms: _280  and  _281
REMARK  116  A    between atoms: _281  and  _282
REMARK  117  A    between atoms: _287  and  _289
REMARK  118  A    between atoms: _289  and  _290
REMARK  119  A    between atoms: _289  and  _292
REMARK  120  A    between atoms: _292  and  _293
REMARK  121  A    between atoms: _296  and  _298
REMARK  122  A    between atoms: _298  and  _299
REMARK  123  A    between atoms: _298  and  _301
REMARK  124  A    between atoms: _301  and  _302
REMARK  125  A    between atoms: _307  and  _309
REMARK  126  A    between atoms: _309  and  _310
REMARK  127  A    between atoms: _309  and  _312
REMARK  128  A    between atoms: _312  and  _313
REMARK  129  A    between atoms: _313  and  _314
REMARK  130  A    between atoms: _316  and  _318
REMARK  131  A    between atoms: _318  and  _319
REMARK  132  A    between atoms: _318  and  _321
REMARK  133  A    between atoms: _321  and  _322
REMARK  134  A    between atoms: _325  and  _327
REMARK  135  A    between atoms: _327  and  _328
REMARK  136  A    between atoms: _327  and  _330
REMARK  137  A    between atoms: _330  and  _331
REMARK  138  A    between atoms: _331  and  _332
REMARK  139  A    between atoms: _332  and  _333
REMARK  140  A    between atoms: _342  and  _344
REMARK  141  A    between atoms: _344  and  _345
REMARK  142  A    between atoms: _344  and  _347
REMARK  143  A    between atoms: _347  and  _348
REMARK  144  A    between atoms: _353  and  _354
REMARK  145  A    between atoms: _356  and  _358
REMARK  146  A    between atoms: _358  and  _359
REMARK  147  A    between atoms: _358  and  _365
REMARK  148  A    between atoms: _359  and  _360
REMARK  149  A    between atoms: _360  and  _361
REMARK  150  A    between atoms: _361  and  _362
REMARK  151  A    between atoms: _362  and  _363
REMARK  152  A    between atoms: _370  and  _372
REMARK  153  A    between atoms: _372  and  _373
REMARK  154  A    between atoms: _372  and  _375
REMARK  155  A    between atoms: _375  and  _376
REMARK  156  A    between atoms: _378  and  _380
REMARK  157  A    between atoms: _380  and  _381
REMARK  158  A    between atoms: _380  and  _383
REMARK  159  A    between atoms: _383  and  _384
REMARK  160  A    between atoms: _384  and  _385
REMARK  161  A    between atoms: _385  and  _386
REMARK  162  A    between atoms: _386  and  _387
REMARK  163  A    between atoms: _391  and  _393
REMARK  164  A    between atoms: _393  and  _394
REMARK  165  A    between atoms: _397  and  _399
REMARK  166  A    between atoms: _399  and  _400
REMARK  167  A    between atoms: _399  and  _402
REMARK  168  A    between atoms: _402  and  _403
REMARK  169  A    between atoms: _406  and  _408
REMARK  170  A    between atoms: _408  and  _409
REMARK  171  A    between atoms: _408  and  _411
REMARK  172  A    between atoms: _411  and  _412
REMARK  173  A    between atoms: _417  and  _419
REMARK  174  A    between atoms: _419  and  _420
REMARK  175  A    between atoms: _419  and  _422
REMARK  176  A    between atoms: _422  and  _423
REMARK  177  A    between atoms: _426  and  _428
REMARK  178  A    between atoms: _428  and  _429
REMARK  179  A    between atoms: _431  and  _433
REMARK  180  A    between atoms: _433  and  _434
REMARK  181  A    between atoms: _433  and  _436
REMARK  182  A    between atoms: _436  and  _437
REMARK  183  A    between atoms: _437  and  _438
REMARK  184  A    between atoms: _438  and  _439
REMARK  185  A    between atoms: _439  and  _440
REMARK  186  A    between atoms: _444  and  _446
REMARK  187  A    between atoms: _446  and  _447
REMARK  188  A    between atoms: _450  and  _452
REMARK  189  A    between atoms: _452  and  _453
REMARK  190  A    between atoms: _452  and  _455
REMARK  191  A    between atoms: _457  and  _459
REMARK  192  A    between atoms: _459  and  _460
REMARK  193  A    between atoms: _463  and  _465
REMARK  194  A    between atoms: _465  and  _466
REMARK  195  A    between atoms: _465  and  _468
REMARK  196  A    between atoms: _468  and  _469
REMARK  197  A    between atoms: _471  and  _473
REMARK  198  A    between atoms: _473  and  _474
REMARK  199  A    between atoms: _473  and  _476
REMARK  200  A    between atoms: _476  and  _477
REMARK  201  A    between atoms: _480  and  _482
REMARK  202  A    between atoms: _482  and  _483
REMARK  203  A    between atoms: _482  and  _485
REMARK  204  A    between atoms: _485  and  _486
REMARK  205  A    between atoms: _489  and  _491
REMARK  206  A    between atoms: _491  and  _492
REMARK  207  A    between atoms: _491  and  _494
REMARK  208  A    between atoms: _494  and  _495
REMARK  209  A    between atoms: _495  and  _496
REMARK  210  A    between atoms: _501  and  _503
REMARK  211  A    between atoms: _503  and  _504
REMARK  212  A    between atoms: _503  and  _506
REMARK  213  A    between atoms: _506  and  _507
REMARK  214  A    between atoms: _513  and  _515
REMARK  215  A    between atoms: _515  and  _516
REMARK  216  A    between atoms: _515  and  _518
REMARK  217  A    between atoms: _518  and  _519
REMARK  218  A    between atoms: _519  and  _520
REMARK  219  A    between atoms: _520  and  _521
REMARK  220  A    between atoms: _521  and  _522
REMARK  221  A    between atoms: _526  and  _528
REMARK  222  A    between atoms: _528  and  _529
REMARK  223  A    between atoms: _528  and  _531
REMARK  224  A    between atoms: _531  and  _532
REMARK  225  A    between atoms: _537  and  _539
REMARK  226  A    between atoms: _539  and  _540
REMARK  227  A    between atoms: _539  and  _542
REMARK  228  A    between atoms: _542  and  _543
REMARK  229  A    between atoms: _549  and  _551
REMARK  230  A    between atoms: _551  and  _552
REMARK  231  A    between atoms: _551  and  _554
REMARK  232  A    between atoms: _554  and  _555
REMARK  233  A    between atoms: _555  and  _556
REMARK  234  A    between atoms: _559  and  _561
REMARK  235  A    between atoms: _561  and  _562
REMARK  236  A    between atoms: _561  and  _564
REMARK  237  A    between atoms: _564  and  _565
REMARK  238  A    between atoms: _565  and  _566
REMARK  239  A    between atoms: _571  and  _573
REMARK  240  A    between atoms: _573  and  _574
REMARK  241  A    between atoms: _573  and  _576
REMARK  242  A    between atoms: _576  and  _577
REMARK  243  A    between atoms: _577  and  _578
REMARK  244  A    between atoms: _578  and  _579
REMARK  245  A    between atoms: _588  and  _590
REMARK  246  A    between atoms: _590  and  _591
REMARK                            x       y       z     vdW  Elec       q    Type
REMARK                         _______ _______ _______ _____ _____    ______ ____
ROOT
ATOM      1  CG  TYR A   1      11.191  16.753  49.579  0.00  0.00    -0.020 A 
ATOM      2  CD2 TYR A   1      11.411  17.928  50.243  0.00  0.00    -0.001 A 
ATOM      3  CE2 TYR A   1      10.331  18.670  50.797  0.00  0.00    +0.036 A 
ATOM      4  CZ  TYR A   1       9.042  18.191  50.608  0.00  0.00    +0.134 A 
ATOM      5  CE1 TYR A   1       8.802  17.035  49.888  0.00  0.00    +0.036 A 
ATOM      6  CD1 TYR A   1       9.890  16.323  49.403  0.00  0.00    -0.001 A 
ENDROOT
BRANCH   4   7
ATOM      7  OH  TYR A   1       7.964  18.912  51.109  0.00  0.00    -0.506 OA
ATOM      8  HH  TYR A   1       8.298  19.706  51.597  0.00  0.00    +0.292 HD
ENDBRANCH   4   7
BRANCH   1   9
ATOM      9  CB  TYR A   1      12.311  15.961  48.952  0.00  0.00    +0.051 C 
BRANCH   9  10
ATOM     10  CA  TYR A   1      13.562  15.726  49.809  0.00  0.00    +0.137 C 
BRANCH  10  11
ATOM     11  N   TYR A   1      14.377  14.810  49.018  0.00  0.00    -0.239 NA
ATOM     12  H   TYR A   1      14.024  14.485  48.095  0.00  0.00    +0.142 HD
ENDBRANCH  10  11
BRANCH  10  13
ATOM     13  C   TYR A   1      13.211  15.131  51.188  0.00  0.00    +0.224 C 
ATOM     14  O   TYR A   1      13.349  15.820  52.229  0.00  0.00    -0.287 OA
ENDBRANCH  10  13
ENDBRANCH   9  10
ENDBRANCH   1   9
TORSDOF 5
REMARK  Name = ../refined-set-2016/2xpc/2xpc_pocket.pdb
REMARK  246 active torsions:
REMARK  status: ('A' for Active; 'I' for Inactive)
REMARK    1  A    between atoms: _1  and  _3
REMARK    2  A    between atoms: _3  and  _4
REMARK    3  A    between atoms: _3  and  _6
REMARK    4  A    between atoms: _6  and  _7
REMARK    5  A    between atoms: _10  and  _12
REMARK    6  A    between atoms: _12  and  _13
REMARK    7  A    between atoms: _12  and  _15
REMARK    8  A    between atoms: _15  and  _16
REMARK    9  A    between atoms: _19  and  _21
REMARK   10  A    between atoms: _21  and  _22
REMARK   11  A    between atoms: _24  and  _26
REMARK   12  A    between atoms: _26  and  _27
REMARK   13  A    between atoms: _26  and  _29
REMARK   14  A    between atoms: _29  and  _30
REMARK   15  A    between atoms: _33  and  _35
REMARK   16  A    between atoms: _35  and  _36
REMARK   17  A    between atoms: _38  and  _40
REMARK   18  A    between atoms: _40  and  _41
REMARK   19  A    between atoms: _40  and  _43
REMARK   20  A    between atoms: _43  and  _44
REMARK   21  A    between atoms: _47  and  _49
REMARK   22  A    between atoms: _49  and  _50
REMARK   23  A    between atoms: _49  and  _52
REMARK   24  A    between atoms: _52  and  _53
REMARK   25  A    between atoms: _56  and  _58
REMARK   26  A    between atoms: _58  and  _59
REMARK   27  A    between atoms: _61  and  _63
REMARK   28  A    between atoms: _63  and  _64
REMARK   29  A    between atoms: _63  and  _66
REMARK   30  A    between atoms: _66  and  _67
REMARK   31  A    between atoms: _67  and  _68
REMARK   32  A    between atoms: _70  and  _72
REMARK   33  A    between atoms: _72  and  _73
REMARK   34  A    between atoms: _72  and  _75
REMARK   35  A    between atoms: _75  and  _76
REMARK   36  A    between atoms: _79  and  _81
REMARK   37  A    between atoms: _81  and  _82
REMARK   38  A    between atoms: _81  and  _84
REMARK   39  A    between atoms: _84  and  _85
REMARK   40  A    between atoms: _88  and  _90
REMARK   41  A    between atoms: _90  and  _91
REMARK   42  A    between atoms: _90  and  _93
REMARK   43  A    between atoms: _93  and  _94
REMARK   44  A    between atoms: _94  and  _95
REMARK   45  A    between atoms: _95  and  _96
REMARK   46  A    between atoms: _106  and  _107
REMARK   47  A    between atoms: _113  and  _114
REMARK   48  A    between atoms: _119  and  _121
REMARK   49  A    between atoms: _121  and  _122
REMARK   50  A    between atoms: _121  and  _124
REMARK   51  A    between atoms: _124  and  _125
REMARK   52  A    between atoms: _130  and  _132
REMARK   53  A    between atoms: _132  and  _133
REMARK   54  A    between atoms: _135  and  _137
REMARK   55  A    between atoms: _137  and  _138
REMARK   56  A    between atoms: _137  and  _140
REMARK   57  A    between atoms: _140  and  _141
REMARK   58  A    between atoms: _143  and  _145
REMARK   59  A    between atoms: _145  and  _146
REMARK   60  A    between atoms: _145  and  _148
REMARK   61  A    between atoms: _148  and  _149
REMARK   62  A    between atoms: _152  and  _154
REMARK   63  A    between atoms: _154  and  _155
REMARK   64  A    between atoms: _154  and  _157
REMARK   65  A    between atoms: _157  and  _158
REMARK   66  A    between atoms: _163  and  _165
REMARK   67  A    between atoms: _165  and  _166
REMARK   68  A    between atoms: _169  and  _171
REMARK   69  A    between atoms: _171  and  _172
REMARK   70  A    between atoms: _171  and  _174
REMARK   71  A    between atoms: _174  and  _175
REMARK   72  A    between atoms: _178  and  _179
REMARK   73  A    between atoms: _184  and  _186
REMARK   74  A    between atoms: _186  and  _187
REMARK   75  A    between atoms: _189  and  _191
REMARK   76  A    between atoms: _191  and  _192
REMARK   77  A    between atoms: _191  and  _194
REMARK   78  A    between atoms: _194  and  _195
REMARK   79  A    between atoms: _198  and  _200
REMARK   80  A    between atoms: _200  and  _201
REMARK   81  A    between atoms: _204  and  _206
REMARK   82  A    between atoms: _206  and  _207
REMARK   83  A    between atoms: _206  and  _209
REMARK   84  A    between atoms: _209  and  _210
REMARK   85  A    between atoms: _215  and  _217
REMARK   86  A    between atoms: _217  and  _218
REMARK   87  A    between atoms: _217  and  _220
REMARK   88  A    between atoms: _220  and  _221
REMARK   89  A    between atoms: _223  and  _225
REMARK   90  A    between atoms: _225  and  _226
REMARK   91  A    between atoms: _225  and  _228
REMARK   92  A    between atoms: _228  and  _229
REMARK   93  A    between atoms: _229  and  _230
REMARK   94  A    between atoms: _230  and  _231
REMARK   95  A    between atoms: _231  and  _232
REMARK   96  A    between atoms: _236  and  _238
REMARK   97  A    between atoms: _238  and  _239
REMARK   98  A    between atoms: _238  and  _241
REMARK   99  A    between atoms: _241  and  _242
REMARK  100  A    between atoms: _247  and  _249
REMARK  101  A    between atoms: _249  and  _250
REMARK  102  A    between atoms: _249  and  _252
REMARK  103  A    between atoms: _252  and  _253
REMARK  104  A    between atoms: _255  and  _257
REMARK  105  A    between atoms: _257  and  _258
REMARK  106  A    between atoms: _257  and  _260
REMARK  107  A    between atoms: _260  and  _261
REMARK  108  A    between atoms: _263  and  _265
REMARK  109  A    between atoms: _265  and  _266
REMARK  110  A    between atoms: _265  and  _268
REMARK  111  A    between atoms: _268  and  _269
REMARK  112  A    between atoms: _275  and  _277
REMARK  113  A    between atoms: _277  and  _278
REMARK  114  A    between atoms: _277  and  _280
REMARK  115  A    between atoms: _280  and  _281
REMARK  116  A    between atoms: _281  and  _282
REMARK  117  A    between atoms: _287  and  _289
REMARK  118  A    between atoms: _289  and  _290
REMARK  119  A    between atoms: _289  and  _292
REMARK  120  A    between atoms: _292  and  _293
REMARK  121  A    between atoms: _296  and  _298
REMARK  122  A    between atoms: _298  and  _299
REMARK  123  A    between atoms: _298  and  _301
REMARK  124  A    between atoms: _301  and  _302
REMARK  125  A    between atoms: _307  and  _309
REMARK  126  A    between atoms: _309  and  _310
REMARK  127  A    between atoms: _309  and  _312
REMARK  128  A    between atoms: _312  and  _313
REMARK  129  A    between atoms: _313  and  _314
REMARK  130  A    between atoms: _316  and  _318
REMARK  131  A    between atoms: _318  and  _319
REMARK  132  A    between atoms: _318  and  _321
REMARK  133  A    between atoms: _321  and  _322
REMARK  134  A    between atoms: _325  and  _327
REMARK  135  A    between atoms: _327  and  _328
REMARK  136  A    between atoms: _327  and  _330
REMARK  137  A    between atoms: _330  and  _331
REMARK  138  A    between atoms: _331  and  _332
REMARK  139  A    between atoms: _332  and  _333
REMARK  140  A    between atoms: _342  and  _344
REMARK  141  A    between atoms: _344  and  _345
REMARK  142  A    between atoms: _344  and  _347
REMARK  143  A    between atoms: _347  and  _348
REMARK  144  A    between atoms: _353  and  _354
REMARK  145  A    between atoms: _356  and  _358
REMARK  146  A    between atoms: _358  and  _359
REMARK  147  A    between atoms: _358  and  _365
REMARK  148  A    between atoms: _359  and  _360
REMARK  149  A    between atoms: _360  and  _361
REMARK  150  A    between atoms: _361  and  _362
REMARK  151  A    between atoms: _362  and  _363
REMARK  152  A    between atoms: _370  and  _372
REMARK  153  A    between atoms: _372  and  _373
REMARK  154  A    between atoms: _372  and  _375
REMARK  155  A    between atoms: _375  and  _376
REMARK  156  A    between atoms: _378  and  _380
REMARK  157  A    between atoms: _380  and  _381
REMARK  158  A    between atoms: _380  and  _383
REMARK  159  A    between atoms: _383  and  _384
REMARK  160  A    between atoms: _384  and  _385
REMARK  161  A    between atoms: _385  and  _386
REMARK  162  A    between atoms: _386  and  _387
REMARK  163  A    between atoms: _391  and  _393
REMARK  164  A    between atoms: _393  and  _394
REMARK  165  A    between atoms: _397  and  _399
REMARK  166  A    between atoms: _399  and  _400
REMARK  167  A    between atoms: _399  and  _402
REMARK  168  A    between atoms: _402  and  _403
REMARK  169  A    between atoms: _406  and  _408
REMARK  170  A    between atoms: _408  and  _409
REMARK  171  A    between atoms: _408  and  _411
REMARK  172  A    between atoms: _411  and  _412
REMARK  173  A    between atoms: _417  and  _419
REMARK  174  A    between atoms: _419  and  _420
REMARK  175  A    between atoms: _419  and  _422
REMARK  176  A    between atoms: _422  and  _423
REMARK  177  A    between atoms: _426  and  _428
REMARK  178  A    between atoms: _428  and  _429
REMARK  179  A    between atoms: _431  and  _433
REMARK  180  A    between atoms: _433  and  _434
REMARK  181  A    between atoms: _433  and  _436
REMARK  182  A    between atoms: _436  and  _437
REMARK  183  A    between atoms: _437  and  _438
REMARK  184  A    between atoms: _438  and  _439
REMARK  185  A    between atoms: _439  and  _440
REMARK  186  A    between atoms: _444  and  _446
REMARK  187  A    between atoms: _446  and  _447
REMARK  188  A    between atoms: _450  and  _452
REMARK  189  A    between atoms: _452  and  _453
REMARK  190  A    between atoms: _452  and  _455
REMARK  191  A    between atoms: _457  and  _459
REMARK  192  A    between atoms: _459  and  _460
REMARK  193  A    between atoms: _463  and  _465
REMARK  194  A    between atoms: _465  and  _466
REMARK  195  A    between atoms: _465  and  _468
REMARK  196  A    between atoms: _468  and  _469
REMARK  197  A    between atoms: _471  and  _473
REMARK  198  A    between atoms: _473  and  _474
REMARK  199  A    between atoms: _473  and  _476
REMARK  200  A    between atoms: _476  and  _477
REMARK  201  A    between atoms: _480  and  _482
REMARK  202  A    between atoms: _482  and  _483
REMARK  203  A    between atoms: _482  and  _485
REMARK  204  A    between atoms: _485  and  _486
REMARK  205  A    between atoms: _489  and  _491
REMARK  206  A    between atoms: _491  and  _492
REMARK  207  A    between atoms: _491  and  _494
REMARK  208  A    between atoms: _494  and  _495
REMARK  209  A    between atoms: _495  and  _496
REMARK  210  A    between atoms: _501  and  _503
REMARK  211  A    between atoms: _503  and  _504
REMARK  212  A    between atoms: _503  and  _506
REMARK  213  A    between atoms: _506  and  _507
REMARK  214  A    between atoms: _513  and  _515
REMARK  215  A    between atoms: _515  and  _516
REMARK  216  A    between atoms: _515  and  _518
REMARK  217  A    between atoms: _518  and  _519
REMARK  218  A    between atoms: _519  and  _520
REMARK  219  A    between atoms: _520  and  _521
REMARK  220  A    between atoms: _521  and  _522
REMARK  221  A    between atoms: _526  and  _528
REMARK  222  A    between atoms: _528  and  _529
REMARK  223  A    between atoms: _528  and  _531
REMARK  224  A    between atoms: _531  and  _532
REMARK  225  A    between atoms: _537  and  _539
REMARK  226  A    between atoms: _539  and  _540
REMARK  227  A    between atoms: _539  and  _542
REMARK  228  A    between atoms: _542  and  _543
REMARK  229  A    between atoms: _549  and  _551
REMARK  230  A    between atoms: _551  and  _552
REMARK  231  A    between atoms: _551  and  _554
REMARK  232  A    between atoms: _554  and  _555
REMARK  233  A    between atoms: _555  and  _556
REMARK  234  A    between atoms: _559  and  _561
REMARK  235  A    between atoms: _561  and  _562
REMARK  236  A    between atoms: _561  and  _564
REMARK  237  A    between atoms: _564  and  _565
REMARK  238  A    between atoms: _565  and  _566
REMARK  239  A    between atoms: _571  and  _573
REMARK  240  A    between atoms: _573  and  _574
REMARK  241  A    between atoms: _573  and  _576
REMARK  242  A    between atoms: _576  and  _577
REMARK  243  A    between atoms: _577  and  _578
REMARK  244  A    between atoms: _578  and  _579
REMARK  245  A    between atoms: _588  and  _590
REMARK  246  A    between atoms: _590  and  _591
REMARK                            x       y       z     vdW  Elec       q    Type
REMARK                         _______ _______ _______ _____ _____    ______ ____
ROOT
ATOM      1  C   UNK     1      11.270  17.230  55.088  0.00  0.00    +0.004 C 
ENDROOT
BRANCH   1   2
ATOM      2  C   UNK     1      11.791  16.162  56.036  0.00  0.00    +0.025 C 
BRANCH   2   3
ATOM      3  C   UNK     1      13.244  16.387  56.470  0.00  0.00    +0.133 C 
BRANCH   3   4
ATOM      4  N   UNK     1      14.140  16.296  55.309  0.00  0.00    -0.239 NA
ATOM      5  H   UNK     1      13.788  15.948  54.394  0.00  0.00    +0.142 HD
ENDBRANCH   3   4
BRANCH   3   6
ATOM      6  C   UNK     1      13.609  15.410  57.604  0.00  0.00    +0.224 C 
ATOM      7  O   UNK     1      13.450  15.770  58.774  0.00  0.00    -0.287 OA
ENDBRANCH   3   6
ENDBRANCH   2   3
ENDBRANCH   1   2
BRANCH   1   8
ATOM      8  C   UNK     1       9.728  17.199  55.060  0.00  0.00    +0.021 C 
BRANCH   8   9
ATOM      9  C   UNK     1       9.149  18.278  54.133  0.00  0.00    +0.093 C 
BRANCH   9  10
ATOM     10  N   UNK     1       9.491  19.639  54.643  0.00  0.00    -0.268 N 
ATOM     11  C   UNK     1       9.177  20.735  53.906  0.00  0.00    +0.444 C 
ATOM     12  O   UNK     1       8.538  20.726  52.814  0.00  0.00    -0.223 OA
ATOM     13  O   UNK     1       9.510  21.855  54.391  0.00  0.00    -0.223 OA
ATOM     14  H   UNK     1       9.969  19.747  55.561  0.00  0.00    +0.153 HD
ENDBRANCH   9  10
ENDBRANCH   8   9
ENDBRANCH   1   8
TORSDOF 7
REMARK  Name = ../refined-set-2016/2xpc/2xpc_pocket.pdb
REMARK  246 active torsions:
REMARK  status: ('A' for Active; 'I' for Inactive)
REMARK    1  A    between atoms: _1  and  _3
REMARK    2  A    between atoms: _3  and  _4
REMARK    3  A    between atoms: _3  and  _6
REMARK    4  A    between atoms: _6  and  _7
REMARK    5  A    between atoms: _10  and  _12
REMARK    6  A    between atoms: _12  and  _13
REMARK    7  A    between atoms: _12  and  _15
REMARK    8  A    between atoms: _15  and  _16
REMARK    9  A    between atoms: _19  and  _21
REMARK   10  A    between atoms: _21  and  _22
REMARK   11  A    between atoms: _24  and  _26
REMARK   12  A    between atoms: _26  and  _27
REMARK   13  A    between atoms: _26  and  _29
REMARK   14  A    between atoms: _29  and  _30
REMARK   15  A    between atoms: _33  and  _35
REMARK   16  A    between atoms: _35  and  _36
REMARK   17  A    between atoms: _38  and  _40
REMARK   18  A    between atoms: _40  and  _41
REMARK   19  A    between atoms: _40  and  _43
REMARK   20  A    between atoms: _43  and  _44
REMARK   21  A    between atoms: _47  and  _49
REMARK   22  A    between atoms: _49  and  _50
REMARK   23  A    between atoms: _49  and  _52
REMARK   24  A    between atoms: _52  and  _53
REMARK   25  A    between atoms: _56  and  _58
REMARK   26  A    between atoms: _58  and  _59
REMARK   27  A    between atoms: _61  and  _63
REMARK   28  A    between atoms: _63  and  _64
REMARK   29  A    between atoms: _63  and  _66
REMARK   30  A    between atoms: _66  and  _67
REMARK   31  A    between atoms: _67  and  _68
REMARK   32  A    between atoms: _70  and  _72
REMARK   33  A    between atoms: _72  and  _73
REMARK   34  A    between atoms: _72  and  _75
REMARK   35  A    between atoms: _75  and  _76
REMARK   36  A    between atoms: _79  and  _81
REMARK   37  A    between atoms: _81  and  _82
REMARK   38  A    between atoms: _81  and  _84
REMARK   39  A    between atoms: _84  and  _85
REMARK   40  A    between atoms: _88  and  _90
REMARK   41  A    between atoms: _90  and  _91
REMARK   42  A    between atoms: _90  and  _93
REMARK   43  A    between atoms: _93  and  _94
REMARK   44  A    between atoms: _94  and  _95
REMARK   45  A    between atoms: _95  and  _96
REMARK   46  A    between atoms: _106  and  _107
REMARK   47  A    between atoms: _113  and  _114
REMARK   48  A    between atoms: _119  and  _121
REMARK   49  A    between atoms: _121  and  _122
REMARK   50  A    between atoms: _121  and  _124
REMARK   51  A    between atoms: _124  and  _125
REMARK   52  A    between atoms: _130  and  _132
REMARK   53  A    between atoms: _132  and  _133
REMARK   54  A    between atoms: _135  and  _137
REMARK   55  A    between atoms: _137  and  _138
REMARK   56  A    between atoms: _137  and  _140
REMARK   57  A    between atoms: _140  and  _141
REMARK   58  A    between atoms: _143  and  _145
REMARK   59  A    between atoms: _145  and  _146
REMARK   60  A    between atoms: _145  and  _148
REMARK   61  A    between atoms: _148  and  _149
REMARK   62  A    between atoms: _152  and  _154
REMARK   63  A    between atoms: _154  and  _155
REMARK   64  A    between atoms: _154  and  _157
REMARK   65  A    between atoms: _157  and  _158
REMARK   66  A    between atoms: _163  and  _165
REMARK   67  A    between atoms: _165  and  _166
REMARK   68  A    between atoms: _169  and  _171
REMARK   69  A    between atoms: _171  and  _172
REMARK   70  A    between atoms: _171  and  _174
REMARK   71  A    between atoms: _174  and  _175
REMARK   72  A    between atoms: _178  and  _179
REMARK   73  A    between atoms: _184  and  _186
REMARK   74  A    between atoms: _186  and  _187
REMARK   75  A    between atoms: _189  and  _191
REMARK   76  A    between atoms: _191  and  _192
REMARK   77  A    between atoms: _191  and  _194
REMARK   78  A    between atoms: _194  and  _195
REMARK   79  A    between atoms: _198  and  _200
REMARK   80  A    between atoms: _200  and  _201
REMARK   81  A    between atoms: _204  and  _206
REMARK   82  A    between atoms: _206  and  _207
REMARK   83  A    between atoms: _206  and  _209
REMARK   84  A    between atoms: _209  and  _210
REMARK   85  A    between atoms: _215  and  _217
REMARK   86  A    between atoms: _217  and  _218
REMARK   87  A    between atoms: _217  and  _220
REMARK   88  A    between atoms: _220  and  _221
REMARK   89  A    between atoms: _223  and  _225
REMARK   90  A    between atoms: _225  and  _226
REMARK   91  A    between atoms: _225  and  _228
REMARK   92  A    between atoms: _228  and  _229
REMARK   93  A    between atoms: _229  and  _230
REMARK   94  A    between atoms: _230  and  _231
REMARK   95  A    between atoms: _231  and  _232
REMARK   96  A    between atoms: _236  and  _238
REMARK   97  A    between atoms: _238  and  _239
REMARK   98  A    between atoms: _238  and  _241
REMARK   99  A    between atoms: _241  and  _242
REMARK  100  A    between atoms: _247  and  _249
REMARK  101  A    between atoms: _249  and  _250
REMARK  102  A    between atoms: _249  and  _252
REMARK  103  A    between atoms: _252  and  _253
REMARK  104  A    between atoms: _255  and  _257
REMARK  105  A    between atoms: _257  and  _258
REMARK  106  A    between atoms: _257  and  _260
REMARK  107  A    between atoms: _260  and  _261
REMARK  108  A    between atoms: _263  and  _265
REMARK  109  A    between atoms: _265  and  _266
REMARK  110  A    between atoms: _265  and  _268
REMARK  111  A    between atoms: _268  and  _269
REMARK  112  A    between atoms: _275  and  _277
REMARK  113  A    between atoms: _277  and  _278
REMARK  114  A    between atoms: _277  and  _280
REMARK  115  A    between atoms: _280  and  _281
REMARK  116  A    between atoms: _281  and  _282
REMARK  117  A    between atoms: _287  and  _289
REMARK  118  A    between atoms: _289  and  _290
REMARK  119  A    between atoms: _289  and  _292
REMARK  120  A    between atoms: _292  and  _293
REMARK  121  A    between atoms: _296  and  _298
REMARK  122  A    between atoms: _298  and  _299
REMARK  123  A    between atoms: _298  and  _301
REMARK  124  A    between atoms: _301  and  _302
REMARK  125  A    between atoms: _307  and  _309
REMARK  126  A    between atoms: _309  and  _310
REMARK  127  A    between atoms: _309  and  _312
REMARK  128  A    between atoms: _312  and  _313
REMARK  129  A    between atoms: _313  and  _314
REMARK  130  A    between atoms: _316  and  _318
REMARK  131  A    between atoms: _318  and  _319
REMARK  132  A    between atoms: _318  and  _321
REMARK  133  A    between atoms: _321  and  _322
REMARK  134  A    between atoms: _325  and  _327
REMARK  135  A    between atoms: _327  and  _328
REMARK  136  A    between atoms: _327  and  _330
REMARK  137  A    between atoms: _330  and  _331
REMARK  138  A    between atoms: _331  and  _332
REMARK  139  A    between atoms: _332  and  _333
REMARK  140  A    between atoms: _342  and  _344
REMARK  141  A    between atoms: _344  and  _345
REMARK  142  A    between atoms: _344  and  _347
REMARK  143  A    between atoms: _347  and  _348
REMARK  144  A    between atoms: _353  and  _354
REMARK  145  A    between atoms: _356  and  _358
REMARK  146  A    between atoms: _358  and  _359
REMARK  147  A    between atoms: _358  and  _365
REMARK  148  A    between atoms: _359  and  _360
REMARK  149  A    between atoms: _360  and  _361
REMARK  150  A    between atoms: _361  and  _362
REMARK  151  A    between atoms: _362  and  _363
REMARK  152  A    between atoms: _370  and  _372
REMARK  153  A    between atoms: _372  and  _373
REMARK  154  A    between atoms: _372  and  _375
REMARK  155  A    between atoms: _375  and  _376
REMARK  156  A    between atoms: _378  and  _380
REMARK  157  A    between atoms: _380  and  _381
REMARK  158  A    between atoms: _380  and  _383
REMARK  159  A    between atoms: _383  and  _384
REMARK  160  A    between atoms: _384  and  _385
REMARK  161  A    between atoms: _385  and  _386
REMARK  162  A    between atoms: _386  and  _387
REMARK  163  A    between atoms: _391  and  _393
REMARK  164  A    between atoms: _393  and  _394
REMARK  165  A    between atoms: _397  and  _399
REMARK  166  A    between atoms: _399  and  _400
REMARK  167  A    between atoms: _399  and  _402
REMARK  168  A    between atoms: _402  and  _403
REMARK  169  A    between atoms: _406  and  _408
REMARK  170  A    between atoms: _408  and  _409
REMARK  171  A    between atoms: _408  and  _411
REMARK  172  A    between atoms: _411  and  _412
REMARK  173  A    between atoms: _417  and  _419
REMARK  174  A    between atoms: _419  and  _420
REMARK  175  A    between atoms: _419  and  _422
REMARK  176  A    between atoms: _422  and  _423
REMARK  177  A    between atoms: _426  and  _428
REMARK  178  A    between atoms: _428  and  _429
REMARK  179  A    between atoms: _431  and  _433
REMARK  180  A    between atoms: _433  and  _434
REMARK  181  A    between atoms: _433  and  _436
REMARK  182  A    between atoms: _436  and  _437
REMARK  183  A    between atoms: _437  and  _438
REMARK  184  A    between atoms: _438  and  _439
REMARK  185  A    between atoms: _439  and  _440
REMARK  186  A    between atoms: _444  and  _446
REMARK  187  A    between atoms: _446  and  _447
REMARK  188  A    between atoms: _450  and  _452
REMARK  189  A    between atoms: _452  and  _453
REMARK  190  A    between atoms: _452  and  _455
REMARK  191  A    between atoms: _457  and  _459
REMARK  192  A    between atoms: _459  and  _460
REMARK  193  A    between atoms: _463  and  _465
REMARK  194  A    between atoms: _465  and  _466
REMARK  195  A    between atoms: _465  and  _468
REMARK  196  A    between atoms: _468  and  _469
REMARK  197  A    between atoms: _471  and  _473
REMARK  198  A    between atoms: _473  and  _474
REMARK  199  A    between atoms: _473  and  _476
REMARK  200  A    between atoms: _476  and  _477
REMARK  201  A    between atoms: _480  and  _482
REMARK  202  A    between atoms: _482  and  _483
REMARK  203  A    between atoms: _482  and  _485
REMARK  204  A    between atoms: _485  and  _486
REMARK  205  A    between atoms: _489  and  _491
REMARK  206  A    between atoms: _491  and  _492
REMARK  207  A    between atoms: _491  and  _494
REMARK  208  A    between atoms: _494  and  _495
REMARK  209  A    between atoms: _495  and  _496
REMARK  210  A    between atoms: _501  and  _503
REMARK  211  A    between atoms: _503  and  _504
REMARK  212  A    between atoms: _503  and  _506
REMARK  213  A    between atoms: _506  and  _507
REMARK  214  A    between atoms: _513  and  _515
REMARK  215  A    between atoms: _515  and  _516
REMARK  216  A    between atoms: _515  and  _518
REMARK  217  A    between atoms: _518  and  _519
REMARK  218  A    between atoms: _519  and  _520
REMARK  219  A    between atoms: _520  and  _521
REMARK  220  A    between atoms: _521  and  _522
REMARK  221  A    between atoms: _526  and  _528
REMARK  222  A    between atoms: _528  and  _529
REMARK  223  A    between atoms: _528  and  _531
REMARK  224  A    between atoms: _531  and  _532
REMARK  225  A    between atoms: _537  and  _539
REMARK  226  A    between atoms: _539  and  _540
REMARK  227  A    between atoms: _539  and  _542
REMARK  228  A    between atoms: _542  and  _543
REMARK  229  A    between atoms: _549  and  _551
REMARK  230  A    between atoms: _551  and  _552
REMARK  231  A    between atoms: _551  and  _554
REMARK  232  A    between atoms: _554  and  _555
REMARK  233  A    between atoms: _555  and  _556
REMARK  234  A    between atoms: _559  and  _561
REMARK  235  A    between atoms: _561  and  _562
REMARK  236  A    between atoms: _561  and  _564
REMARK  237  A    between atoms: _564  and  _565
REMARK  238  A    between atoms: _565  and  _566
REMARK  239  A    between atoms: _571  and  _573
REMARK  240  A    between atoms: _573  and  _574
REMARK  241  A    between atoms: _573  and  _576
REMARK  242  A    between atoms: _576  and  _577
REMARK  243  A    between atoms: _577  and  _578
REMARK  244  A    between atoms: _578  and  _579
REMARK  245  A    between atoms: _588  and  _590
REMARK  246  A    between atoms: _590  and  _591
REMARK                            x       y       z     vdW  Elec       q    Type
REMARK                         _______ _______ _______ _____ _____    ______ ____
ROOT
ATOM      1  CA  ALA A   3      -1.747  25.900  49.200  0.00  0.00    +0.149 C 
ATOM      2  CB  ALA A   3      -3.104  25.455  48.629  0.00  0.00    +0.031 C 
ENDROOT
BRANCH   1   5
ATOM      3  C   LYS A   2      -0.945  27.617  50.742  0.00  0.00    +0.241 C 
ATOM      4  O   LYS A   2       0.054  26.928  51.030  0.00  0.00    -0.273 OA
ATOM      5  N   ALA A   3      -1.886  27.184  49.894  0.00  0.00    -0.297 N 
ATOM      6  H   ALA A   3      -2.730  27.768  49.725  0.00  0.00    +0.150 HD
BRANCH   3   7
ATOM      7  CA  LYS A   2      -1.139  29.010  51.374  0.00  0.00    +0.149 C 
BRANCH   7   9
ATOM      8  C   SER A   1      -2.105  30.200  49.521  0.00  0.00    +0.241 C 
ATOM      9  N   LYS A   2      -2.238  29.750  50.755  0.00  0.00    -0.297 N 
ATOM     10  H   LYS A   2      -3.118  29.920  51.283  0.00  0.00    +0.150 HD
ATOM     11  O   SER A   1      -1.087  30.004  48.868  0.00  0.00    -0.274 OA
BRANCH   8  12
ATOM     12  CA  SER A   1      -3.297  30.947  48.900  0.00  0.00    +0.174 C 
BRANCH  12  13
ATOM     13  N   SER A   1      -4.588  30.619  49.519  0.00  0.00    -0.236 NA
ATOM     14  H   SER A   1      -5.168  31.379  49.929  0.00  0.00    +0.142 HD
ENDBRANCH  12  13
BRANCH  12  15
ATOM     15  CB  SER A   1      -3.072  32.464  48.992  0.00  0.00    +0.163 C 
BRANCH  15  16
ATOM     16  OG  SER A   1      -1.890  32.804  48.282  0.00  0.00    -0.380 OA
ATOM     17  H   SER A   1      -1.742  33.781  48.339  0.00  0.00    +0.211 HD
ENDBRANCH  15  16
ENDBRANCH  12  15
ENDBRANCH   8  12
ENDBRANCH   7   9
BRANCH   7  18
ATOM     18  CB  LYS A   2      -1.351  28.922  52.888  0.00  0.00    +0.029 C 
BRANCH  18  19
ATOM     19  CG  LYS A   2      -0.053  28.787  53.692  0.00  0.00    +0.000 C 
BRANCH  19  20
ATOM     20  CD  LYS A   2      -0.202  29.402  55.090  0.00  0.00    -0.024 C 
BRANCH  20  21
ATOM     21  CE  LYS A   2       0.917  28.967  56.019  0.00  0.00    -0.086 C 
BRANCH  21  22
ATOM     22  NZ  LYS A   2       1.231  29.992  57.043  0.00  0.00    +0.380 N 
ATOM     23  HZ1 LYS A   2       2.001  29.648  57.652  0.00  0.00    -0.089 HD
ATOM     24  HZ2 LYS A   2       0.385  30.174  57.620  0.00  0.00    -0.089 HD
ATOM     25  HZ3 LYS A   2       1.527  30.871  56.573  0.00  0.00    -0.089 HD
ENDBRANCH  21  22
ENDBRANCH  20  21
ENDBRANCH  19  20
ENDBRANCH  18  19
ENDBRANCH   7  18
ENDBRANCH   3   7
ENDBRANCH   1   5
BRANCH   1  26
ATOM     26  C   ALA A   3      -0.735  26.047  48.068  0.00  0.00    +0.241 C 
ATOM     27  N   THR A   4       0.520  25.775  48.411  0.00  0.00    -0.295 N 
ATOM     28  H   THR A   4       0.722  25.401  49.360  0.00  0.00    +0.150 HD
ATOM     29  O   ALA A   3      -1.086  26.367  46.922  0.00  0.00    -0.273 OA
BRANCH  27  30
ATOM     30  CA  THR A   4       1.624  25.994  47.470  0.00  0.00    +0.176 C 
BRANCH  30  31
ATOM     31  C   THR A   4       2.145  24.697  46.876  0.00  0.00    +0.243 C 
ATOM     32  N   ASN A   5       1.499  23.582  47.191  0.00  0.00    -0.298 N 
ATOM     33  H   ASN A   5       0.727  23.607  47.888  0.00  0.00    +0.150 HD
ATOM     34  O   THR A   4       3.152  24.710  46.144  0.00  0.00    -0.273 OA
BRANCH  32  35
ATOM     35  CA  ASN A   5       1.874  22.317  46.557  0.00  0.00    +0.146 C 
BRANCH  35  36
ATOM     36  C   ASN A   5       0.641  21.469  46.286  0.00  0.00    +0.227 C 
ATOM     37  O   ASN A   5      -0.480  21.858  46.673  0.00  0.00    -0.286 OA
ENDBRANCH  35  36
BRANCH  35  38
ATOM     38  CB  ASN A   5       2.924  21.566  47.376  0.00  0.00    +0.112 C 
BRANCH  38  39
ATOM     39  CG  ASN A   5       2.451  21.217  48.773  0.00  0.00    +0.222 C 
ATOM     40  ND2 ASN A   5       3.385  21.173  49.704  0.00  0.00    -0.329 N 
ATOM     41 HD21 ASN A   5       3.138  20.897  50.676  0.00  0.00    +0.145 HD
ATOM     42 HD22 ASN A   5       4.368  21.415  49.466  0.00  0.00    +0.145 HD
ATOM     43  OD1 ASN A   5       1.276  20.943  48.995  0.00  0.00    -0.275 OA
ENDBRANCH  38  39
ENDBRANCH  35  38
ENDBRANCH  32  35
ENDBRANCH  30  31
BRANCH  30  44
ATOM     44  CB  THR A   4       2.757  26.706  48.176  0.00  0.00    +0.137 C 
ATOM     45  CG2 THR A   4       2.329  28.159  48.540  0.00  0.00    +0.034 C 
BRANCH  44  46
ATOM     46  OG1 THR A   4       3.077  26.018  49.394  0.00  0.00    -0.382 OA
ATOM     47  HG1 THR A   4       3.352  25.090  49.185  0.00  0.00    +0.210 HD
ENDBRANCH  44  46
ENDBRANCH  30  44
ENDBRANCH  27  30
ENDBRANCH   1  26
TORSDOF 21
REMARK  Name = ../refined-set-2016/2xpc/2xpc_pocket.pdb
REMARK  246 active torsions:
REMARK  status: ('A' for Active; 'I' for Inactive)
REMARK    1  A    between atoms: _1  and  _3
REMARK    2  A    between atoms: _3  and  _4
REMARK    3  A    between atoms: _3  and  _6
REMARK    4  A    between atoms: _6  and  _7
REMARK    5  A    between atoms: _10  and  _12
REMARK    6  A    between atoms: _12  and  _13
REMARK    7  A    between atoms: _12  and  _15
REMARK    8  A    between atoms: _15  and  _16
REMARK    9  A    between atoms: _19  and  _21
REMARK   10  A    between atoms: _21  and  _22
REMARK   11  A    between atoms: _24  and  _26
REMARK   12  A    between atoms: _26  and  _27
REMARK   13  A    between atoms: _26  and  _29
REMARK   14  A    between atoms: _29  and  _30
REMARK   15  A    between atoms: _33  and  _35
REMARK   16  A    between atoms: _35  and  _36
REMARK   17  A    between atoms: _38  and  _40
REMARK   18  A    between atoms: _40  and  _41
REMARK   19  A    between atoms: _40  and  _43
REMARK   20  A    between atoms: _43  and  _44
REMARK   21  A    between atoms: _47  and  _49
REMARK   22  A    between atoms: _49  and  _50
REMARK   23  A    between atoms: _49  and  _52
REMARK   24  A    between atoms: _52  and  _53
REMARK   25  A    between atoms: _56  and  _58
REMARK   26  A    between atoms: _58  and  _59
REMARK   27  A    between atoms: _61  and  _63
REMARK   28  A    between atoms: _63  and  _64
REMARK   29  A    between atoms: _63  and  _66
REMARK   30  A    between atoms: _66  and  _67
REMARK   31  A    between atoms: _67  and  _68
REMARK   32  A    between atoms: _70  and  _72
REMARK   33  A    between atoms: _72  and  _73
REMARK   34  A    between atoms: _72  and  _75
REMARK   35  A    between atoms: _75  and  _76
REMARK   36  A    between atoms: _79  and  _81
REMARK   37  A    between atoms: _81  and  _82
REMARK   38  A    between atoms: _81  and  _84
REMARK   39  A    between atoms: _84  and  _85
REMARK   40  A    between atoms: _88  and  _90
REMARK   41  A    between atoms: _90  and  _91
REMARK   42  A    between atoms: _90  and  _93
REMARK   43  A    between atoms: _93  and  _94
REMARK   44  A    between atoms: _94  and  _95
REMARK   45  A    between atoms: _95  and  _96
REMARK   46  A    between atoms: _106  and  _107
REMARK   47  A    between atoms: _113  and  _114
REMARK   48  A    between atoms: _119  and  _121
REMARK   49  A    between atoms: _121  and  _122
REMARK   50  A    between atoms: _121  and  _124
REMARK   51  A    between atoms: _124  and  _125
REMARK   52  A    between atoms: _130  and  _132
REMARK   53  A    between atoms: _132  and  _133
REMARK   54  A    between atoms: _135  and  _137
REMARK   55  A    between atoms: _137  and  _138
REMARK   56  A    between atoms: _137  and  _140
REMARK   57  A    between atoms: _140  and  _141
REMARK   58  A    between atoms: _143  and  _145
REMARK   59  A    between atoms: _145  and  _146
REMARK   60  A    between atoms: _145  and  _148
REMARK   61  A    between atoms: _148  and  _149
REMARK   62  A    between atoms: _152  and  _154
REMARK   63  A    between atoms: _154  and  _155
REMARK   64  A    between atoms: _154  and  _157
REMARK   65  A    between atoms: _157  and  _158
REMARK   66  A    between atoms: _163  and  _165
REMARK   67  A    between atoms: _165  and  _166
REMARK   68  A    between atoms: _169  and  _171
REMARK   69  A    between atoms: _171  and  _172
REMARK   70  A    between atoms: _171  and  _174
REMARK   71  A    between atoms: _174  and  _175
REMARK   72  A    between atoms: _178  and  _179
REMARK   73  A    between atoms: _184  and  _186
REMARK   74  A    between atoms: _186  and  _187
REMARK   75  A    between atoms: _189  and  _191
REMARK   76  A    between atoms: _191  and  _192
REMARK   77  A    between atoms: _191  and  _194
REMARK   78  A    between atoms: _194  and  _195
REMARK   79  A    between atoms: _198  and  _200
REMARK   80  A    between atoms: _200  and  _201
REMARK   81  A    between atoms: _204  and  _206
REMARK   82  A    between atoms: _206  and  _207
REMARK   83  A    between atoms: _206  and  _209
REMARK   84  A    between atoms: _209  and  _210
REMARK   85  A    between atoms: _215  and  _217
REMARK   86  A    between atoms: _217  and  _218
REMARK   87  A    between atoms: _217  and  _220
REMARK   88  A    between atoms: _220  and  _221
REMARK   89  A    between atoms: _223  and  _225
REMARK   90  A    between atoms: _225  and  _226
REMARK   91  A    between atoms: _225  and  _228
REMARK   92  A    between atoms: _228  and  _229
REMARK   93  A    between atoms: _229  and  _230
REMARK   94  A    between atoms: _230  and  _231
REMARK   95  A    between atoms: _231  and  _232
REMARK   96  A    between atoms: _236  and  _238
REMARK   97  A    between atoms: _238  and  _239
REMARK   98  A    between atoms: _238  and  _241
REMARK   99  A    between atoms: _241  and  _242
REMARK  100  A    between atoms: _247  and  _249
REMARK  101  A    between atoms: _249  and  _250
REMARK  102  A    between atoms: _249  and  _252
REMARK  103  A    between atoms: _252  and  _253
REMARK  104  A    between atoms: _255  and  _257
REMARK  105  A    between atoms: _257  and  _258
REMARK  106  A    between atoms: _257  and  _260
REMARK  107  A    between atoms: _260  and  _261
REMARK  108  A    between atoms: _263  and  _265
REMARK  109  A    between atoms: _265  and  _266
REMARK  110  A    between atoms: _265  and  _268
REMARK  111  A    between atoms: _268  and  _269
REMARK  112  A    between atoms: _275  and  _277
REMARK  113  A    between atoms: _277  and  _278
REMARK  114  A    between atoms: _277  and  _280
REMARK  115  A    between atoms: _280  and  _281
REMARK  116  A    between atoms: _281  and  _282
REMARK  117  A    between atoms: _287  and  _289
REMARK  118  A    between atoms: _289  and  _290
REMARK  119  A    between atoms: _289  and  _292
REMARK  120  A    between atoms: _292  and  _293
REMARK  121  A    between atoms: _296  and  _298
REMARK  122  A    between atoms: _298  and  _299
REMARK  123  A    between atoms: _298  and  _301
REMARK  124  A    between atoms: _301  and  _302
REMARK  125  A    between atoms: _307  and  _309
REMARK  126  A    between atoms: _309  and  _310
REMARK  127  A    between atoms: _309  and  _312
REMARK  128  A    between atoms: _312  and  _313
REMARK  129  A    between atoms: _313  and  _314
REMARK  130  A    between atoms: _316  and  _318
REMARK  131  A    between atoms: _318  and  _319
REMARK  132  A    between atoms: _318  and  _321
REMARK  133  A    between atoms: _321  and  _322
REMARK  134  A    between atoms: _325  and  _327
REMARK  135  A    between atoms: _327  and  _328
REMARK  136  A    between atoms: _327  and  _330
REMARK  137  A    between atoms: _330  and  _331
REMARK  138  A    between atoms: _331  and  _332
REMARK  139  A    between atoms: _332  and  _333
REMARK  140  A    between atoms: _342  and  _344
REMARK  141  A    between atoms: _344  and  _345
REMARK  142  A    between atoms: _344  and  _347
REMARK  143  A    between atoms: _347  and  _348
REMARK  144  A    between atoms: _353  and  _354
REMARK  145  A    between atoms: _356  and  _358
REMARK  146  A    between atoms: _358  and  _359
REMARK  147  A    between atoms: _358  and  _365
REMARK  148  A    between atoms: _359  and  _360
REMARK  149  A    between atoms: _360  and  _361
REMARK  150  A    between atoms: _361  and  _362
REMARK  151  A    between atoms: _362  and  _363
REMARK  152  A    between atoms: _370  and  _372
REMARK  153  A    between atoms: _372  and  _373
REMARK  154  A    between atoms: _372  and  _375
REMARK  155  A    between atoms: _375  and  _376
REMARK  156  A    between atoms: _378  and  _380
REMARK  157  A    between atoms: _380  and  _381
REMARK  158  A    between atoms: _380  and  _383
REMARK  159  A    between atoms: _383  and  _384
REMARK  160  A    between atoms: _384  and  _385
REMARK  161  A    between atoms: _385  and  _386
REMARK  162  A    between atoms: _386  and  _387
REMARK  163  A    between atoms: _391  and  _393
REMARK  164  A    between atoms: _393  and  _394
REMARK  165  A    between atoms: _397  and  _399
REMARK  166  A    between atoms: _399  and  _400
REMARK  167  A    between atoms: _399  and  _402
REMARK  168  A    between atoms: _402  and  _403
REMARK  169  A    between atoms: _406  and  _408
REMARK  170  A    between atoms: _408  and  _409
REMARK  171  A    between atoms: _408  and  _411
REMARK  172  A    between atoms: _411  and  _412
REMARK  173  A    between atoms: _417  and  _419
REMARK  174  A    between atoms: _419  and  _420
REMARK  175  A    between atoms: _419  and  _422
REMARK  176  A    between atoms: _422  and  _423
REMARK  177  A    between atoms: _426  and  _428
REMARK  178  A    between atoms: _428  and  _429
REMARK  179  A    between atoms: _431  and  _433
REMARK  180  A    between atoms: _433  and  _434
REMARK  181  A    between atoms: _433  and  _436
REMARK  182  A    between atoms: _436  and  _437
REMARK  183  A    between atoms: _437  and  _438
REMARK  184  A    between atoms: _438  and  _439
REMARK  185  A    between atoms: _439  and  _440
REMARK  186  A    between atoms: _444  and  _446
REMARK  187  A    between atoms: _446  and  _447
REMARK  188  A    between atoms: _450  and  _452
REMARK  189  A    between atoms: _452  and  _453
REMARK  190  A    between atoms: _452  and  _455
REMARK  191  A    between atoms: _457  and  _459
REMARK  192  A    between atoms: _459  and  _460
REMARK  193  A    between atoms: _463  and  _465
REMARK  194  A    between atoms: _465  and  _466
REMARK  195  A    between atoms: _465  and  _468
REMARK  196  A    between atoms: _468  and  _469
REMARK  197  A    between atoms: _471  and  _473
REMARK  198  A    between atoms: _473  and  _474
REMARK  199  A    between atoms: _473  and  _476
REMARK  200  A    between atoms: _476  and  _477
REMARK  201  A    between atoms: _480  and  _482
REMARK  202  A    between atoms: _482  and  _483
REMARK  203  A    between atoms: _482  and  _485
REMARK  204  A    between atoms: _485  and  _486
REMARK  205  A    between atoms: _489  and  _491
REMARK  206  A    between atoms: _491  and  _492
REMARK  207  A    between atoms: _491  and  _494
REMARK  208  A    between atoms: _494  and  _495
REMARK  209  A    between atoms: _495  and  _496
REMARK  210  A    between atoms: _501  and  _503
REMARK  211  A    between atoms: _503  and  _504
REMARK  212  A    between atoms: _503  and  _506
REMARK  213  A    between atoms: _506  and  _507
REMARK  214  A    between atoms: _513  and  _515
REMARK  215  A    between atoms: _515  and  _516
REMARK  216  A    between atoms: _515  and  _518
REMARK  217  A    between atoms: _518  and  _519
REMARK  218  A    between atoms: _519  and  _520
REMARK  219  A    between atoms: _520  and  _521
REMARK  220  A    between atoms: _521  and  _522
REMARK  221  A    between atoms: _526  and  _528
REMARK  222  A    between atoms: _528  and  _529
REMARK  223  A    between atoms: _528  and  _531
REMARK  224  A    between atoms: _531  and  _532
REMARK  225  A    between atoms: _537  and  _539
REMARK  226  A    between atoms: _539  and  _540
REMARK  227  A    between atoms: _539  and  _542
REMARK  228  A    between atoms: _542  and  _543
REMARK  229  A    between atoms: _549  and  _551
REMARK  230  A    between atoms: _551  and  _552
REMARK  231  A    between atoms: _551  and  _554
REMARK  232  A    between atoms: _554  and  _555
REMARK  233  A    between atoms: _555  and  _556
REMARK  234  A    between atoms: _559  and  _561
REMARK  235  A    between atoms: _561  and  _562
REMARK  236  A    between atoms: _561  and  _564
REMARK  237  A    between atoms: _564  and  _565
REMARK  238  A    between atoms: _565  and  _566
REMARK  239  A    between atoms: _571  and  _573
REMARK  240  A    between atoms: _573  and  _574
REMARK  241  A    between atoms: _573  and  _576
REMARK  242  A    between atoms: _576  and  _577
REMARK  243  A    between atoms: _577  and  _578
REMARK  244  A    between atoms: _578  and  _579
REMARK  245  A    between atoms: _588  and  _590
REMARK  246  A    between atoms: _590  and  _591
REMARK                            x       y       z     vdW  Elec       q    Type
REMARK                         _______ _______ _______ _____ _____    ______ ____
ROOT
ATOM      1  C   GLY A   2       5.931  23.838  40.744  0.00  0.00    +0.243 C 
ATOM      2  O   GLY A   2       5.779  22.722  41.229  0.00  0.00    -0.273 OA
ATOM      3  N   LYS A   3       7.137  24.403  40.629  0.00  0.00    -0.298 N 
ATOM      4  H   LYS A   3       7.227  25.313  40.134  0.00  0.00    +0.150 HD
ENDROOT
BRANCH   1   5
ATOM      5  CA  GLY A   2       4.704  24.625  40.301  0.00  0.00    +0.176 C 
BRANCH   5   8
ATOM      6  C   ASP A   1       5.169  26.983  40.532  0.00  0.00    +0.239 C 
ATOM      7  O   ASP A   1       5.241  26.889  41.753  0.00  0.00    -0.274 OA
ATOM      8  N   GLY A   2       4.987  25.930  39.728  0.00  0.00    -0.296 N 
ATOM      9  H   GLY A   2       5.048  26.045  38.696  0.00  0.00    +0.150 HD
BRANCH   6  10
ATOM     10  CA  ASP A   1       5.377  28.316  39.834  0.00  0.00    +0.156 C 
BRANCH  10  11
ATOM     11  N   ASP A   1       4.174  29.128  40.072  0.00  0.00    -0.238 NA
ATOM     12  H   ASP A   1       4.105  29.677  40.952  0.00  0.00    +0.142 HD
ENDBRANCH  10  11
BRANCH  10  13
ATOM     13  CB  ASP A   1       6.581  29.069  40.413  0.00  0.00    +0.140 C 
BRANCH  13  14
ATOM     14  CG  ASP A   1       7.806  28.188  40.652  0.00  0.00    +0.367 C 
ATOM     15  OD2 ASP A   1       8.637  28.569  41.531  0.00  0.00    -0.246 OA
ATOM     16  OD1 ASP A   1       7.975  27.148  39.967  0.00  0.00    -0.246 OA
ENDBRANCH  13  14
ENDBRANCH  10  13
ENDBRANCH   6  10
ENDBRANCH   5   8
ENDBRANCH   1   5
BRANCH   3  17
ATOM     17  CA  LYS A   3       8.348  23.761  41.191  0.00  0.00    +0.137 C 
BRANCH  17  18
ATOM     18  C   LYS A   3       8.562  22.369  40.623  0.00  0.00    +0.227 C 
ATOM     19  O   LYS A   3       9.063  21.483  41.317  0.00  0.00    -0.286 OA
ENDBRANCH  17  18
BRANCH  17  20
ATOM     20  CB  LYS A   3       8.261  23.725  42.744  0.00  0.00    +0.028 C 
BRANCH  20  21
ATOM     21  CG  LYS A   3       8.324  25.145  43.383  0.00  0.00    -0.000 C 
BRANCH  21  22
ATOM     22  CD  LYS A   3       7.890  25.156  44.864  0.00  0.00    -0.024 C 
BRANCH  22  23
ATOM     23  CE  LYS A   3       6.395  24.957  44.920  0.00  0.00    -0.086 C 
BRANCH  23  24
ATOM     24  NZ  LYS A   3       5.922  24.772  46.333  0.00  0.00    +0.380 N 
ATOM     25  HZ1 LYS A   3       6.165  25.615  46.892  0.00  0.00    -0.089 HD
ATOM     26  HZ2 LYS A   3       6.383  23.936  46.745  0.00  0.00    -0.089 HD
ATOM     27  HZ3 LYS A   3       4.891  24.638  46.337  0.00  0.00    -0.089 HD
ENDBRANCH  23  24
ENDBRANCH  22  23
ENDBRANCH  21  22
ENDBRANCH  20  21
ENDBRANCH  17  20
ENDBRANCH   3  17
TORSDOF 13
REMARK  Name = ../refined-set-2016/2xpc/2xpc_pocket.pdb
REMARK  246 active torsions:
REMARK  status: ('A' for Active; 'I' for Inactive)
REMARK    1  A    between atoms: _1  and  _3
REMARK    2  A    between atoms: _3  and  _4
REMARK    3  A    between atoms: _3  and  _6
REMARK    4  A    between atoms: _6  and  _7
REMARK    5  A    between atoms: _10  and  _12
REMARK    6  A    between atoms: _12  and  _13
REMARK    7  A    between atoms: _12  and  _15
REMARK    8  A    between atoms: _15  and  _16
REMARK    9  A    between atoms: _19  and  _21
REMARK   10  A    between atoms: _21  and  _22
REMARK   11  A    between atoms: _24  and  _26
REMARK   12  A    between atoms: _26  and  _27
REMARK   13  A    between atoms: _26  and  _29
REMARK   14  A    between atoms: _29  and  _30
REMARK   15  A    between atoms: _33  and  _35
REMARK   16  A    between atoms: _35  and  _36
REMARK   17  A    between atoms: _38  and  _40
REMARK   18  A    between atoms: _40  and  _41
REMARK   19  A    between atoms: _40  and  _43
REMARK   20  A    between atoms: _43  and  _44
REMARK   21  A    between atoms: _47  and  _49
REMARK   22  A    between atoms: _49  and  _50
REMARK   23  A    between atoms: _49  and  _52
REMARK   24  A    between atoms: _52  and  _53
REMARK   25  A    between atoms: _56  and  _58
REMARK   26  A    between atoms: _58  and  _59
REMARK   27  A    between atoms: _61  and  _63
REMARK   28  A    between atoms: _63  and  _64
REMARK   29  A    between atoms: _63  and  _66
REMARK   30  A    between atoms: _66  and  _67
REMARK   31  A    between atoms: _67  and  _68
REMARK   32  A    between atoms: _70  and  _72
REMARK   33  A    between atoms: _72  and  _73
REMARK   34  A    between atoms: _72  and  _75
REMARK   35  A    between atoms: _75  and  _76
REMARK   36  A    between atoms: _79  and  _81
REMARK   37  A    between atoms: _81  and  _82
REMARK   38  A    between atoms: _81  and  _84
REMARK   39  A    between atoms: _84  and  _85
REMARK   40  A    between atoms: _88  and  _90
REMARK   41  A    between atoms: _90  and  _91
REMARK   42  A    between atoms: _90  and  _93
REMARK   43  A    between atoms: _93  and  _94
REMARK   44  A    between atoms: _94  and  _95
REMARK   45  A    between atoms: _95  and  _96
REMARK   46  A    between atoms: _106  and  _107
REMARK   47  A    between atoms: _113  and  _114
REMARK   48  A    between atoms: _119  and  _121
REMARK   49  A    between atoms: _121  and  _122
REMARK   50  A    between atoms: _121  and  _124
REMARK   51  A    between atoms: _124  and  _125
REMARK   52  A    between atoms: _130  and  _132
REMARK   53  A    between atoms: _132  and  _133
REMARK   54  A    between atoms: _135  and  _137
REMARK   55  A    between atoms: _137  and  _138
REMARK   56  A    between atoms: _137  and  _140
REMARK   57  A    between atoms: _140  and  _141
REMARK   58  A    between atoms: _143  and  _145
REMARK   59  A    between atoms: _145  and  _146
REMARK   60  A    between atoms: _145  and  _148
REMARK   61  A    between atoms: _148  and  _149
REMARK   62  A    between atoms: _152  and  _154
REMARK   63  A    between atoms: _154  and  _155
REMARK   64  A    between atoms: _154  and  _157
REMARK   65  A    between atoms: _157  and  _158
REMARK   66  A    between atoms: _163  and  _165
REMARK   67  A    between atoms: _165  and  _166
REMARK   68  A    between atoms: _169  and  _171
REMARK   69  A    between atoms: _171  and  _172
REMARK   70  A    between atoms: _171  and  _174
REMARK   71  A    between atoms: _174  and  _175
REMARK   72  A    between atoms: _178  and  _179
REMARK   73  A    between atoms: _184  and  _186
REMARK   74  A    between atoms: _186  and  _187
REMARK   75  A    between atoms: _189  and  _191
REMARK   76  A    between atoms: _191  and  _192
REMARK   77  A    between atoms: _191  and  _194
REMARK   78  A    between atoms: _194  and  _195
REMARK   79  A    between atoms: _198  and  _200
REMARK   80  A    between atoms: _200  and  _201
REMARK   81  A    between atoms: _204  and  _206
REMARK   82  A    between atoms: _206  and  _207
REMARK   83  A    between atoms: _206  and  _209
REMARK   84  A    between atoms: _209  and  _210
REMARK   85  A    between atoms: _215  and  _217
REMARK   86  A    between atoms: _217  and  _218
REMARK   87  A    between atoms: _217  and  _220
REMARK   88  A    between atoms: _220  and  _221
REMARK   89  A    between atoms: _223  and  _225
REMARK   90  A    between atoms: _225  and  _226
REMARK   91  A    between atoms: _225  and  _228
REMARK   92  A    between atoms: _228  and  _229
REMARK   93  A    between atoms: _229  and  _230
REMARK   94  A    between atoms: _230  and  _231
REMARK   95  A    between atoms: _231  and  _232
REMARK   96  A    between atoms: _236  and  _238
REMARK   97  A    between atoms: _238  and  _239
REMARK   98  A    between atoms: _238  and  _241
REMARK   99  A    between atoms: _241  and  _242
REMARK  100  A    between atoms: _247  and  _249
REMARK  101  A    between atoms: _249  and  _250
REMARK  102  A    between atoms: _249  and  _252
REMARK  103  A    between atoms: _252  and  _253
REMARK  104  A    between atoms: _255  and  _257
REMARK  105  A    between atoms: _257  and  _258
REMARK  106  A    between atoms: _257  and  _260
REMARK  107  A    between atoms: _260  and  _261
REMARK  108  A    between atoms: _263  and  _265
REMARK  109  A    between atoms: _265  and  _266
REMARK  110  A    between atoms: _265  and  _268
REMARK  111  A    between atoms: _268  and  _269
REMARK  112  A    between atoms: _275  and  _277
REMARK  113  A    between atoms: _277  and  _278
REMARK  114  A    between atoms: _277  and  _280
REMARK  115  A    between atoms: _280  and  _281
REMARK  116  A    between atoms: _281  and  _282
REMARK  117  A    between atoms: _287  and  _289
REMARK  118  A    between atoms: _289  and  _290
REMARK  119  A    between atoms: _289  and  _292
REMARK  120  A    between atoms: _292  and  _293
REMARK  121  A    between atoms: _296  and  _298
REMARK  122  A    between atoms: _298  and  _299
REMARK  123  A    between atoms: _298  and  _301
REMARK  124  A    between atoms: _301  and  _302
REMARK  125  A    between atoms: _307  and  _309
REMARK  126  A    between atoms: _309  and  _310
REMARK  127  A    between atoms: _309  and  _312
REMARK  128  A    between atoms: _312  and  _313
REMARK  129  A    between atoms: _313  and  _314
REMARK  130  A    between atoms: _316  and  _318
REMARK  131  A    between atoms: _318  and  _319
REMARK  132  A    between atoms: _318  and  _321
REMARK  133  A    between atoms: _321  and  _322
REMARK  134  A    between atoms: _325  and  _327
REMARK  135  A    between atoms: _327  and  _328
REMARK  136  A    between atoms: _327  and  _330
REMARK  137  A    between atoms: _330  and  _331
REMARK  138  A    between atoms: _331  and  _332
REMARK  139  A    between atoms: _332  and  _333
REMARK  140  A    between atoms: _342  and  _344
REMARK  141  A    between atoms: _344  and  _345
REMARK  142  A    between atoms: _344  and  _347
REMARK  143  A    between atoms: _347  and  _348
REMARK  144  A    between atoms: _353  and  _354
REMARK  145  A    between atoms: _356  and  _358
REMARK  146  A    between atoms: _358  and  _359
REMARK  147  A    between atoms: _358  and  _365
REMARK  148  A    between atoms: _359  and  _360
REMARK  149  A    between atoms: _360  and  _361
REMARK  150  A    between atoms: _361  and  _362
REMARK  151  A    between atoms: _362  and  _363
REMARK  152  A    between atoms: _370  and  _372
REMARK  153  A    between atoms: _372  and  _373
REMARK  154  A    between atoms: _372  and  _375
REMARK  155  A    between atoms: _375  and  _376
REMARK  156  A    between atoms: _378  and  _380
REMARK  157  A    between atoms: _380  and  _381
REMARK  158  A    between atoms: _380  and  _383
REMARK  159  A    between atoms: _383  and  _384
REMARK  160  A    between atoms: _384  and  _385
REMARK  161  A    between atoms: _385  and  _386
REMARK  162  A    between atoms: _386  and  _387
REMARK  163  A    between atoms: _391  and  _393
REMARK  164  A    between atoms: _393  and  _394
REMARK  165  A    between atoms: _397  and  _399
REMARK  166  A    between atoms: _399  and  _400
REMARK  167  A    between atoms: _399  and  _402
REMARK  168  A    between atoms: _402  and  _403
REMARK  169  A    between atoms: _406  and  _408
REMARK  170  A    between atoms: _408  and  _409
REMARK  171  A    between atoms: _408  and  _411
REMARK  172  A    between atoms: _411  and  _412
REMARK  173  A    between atoms: _417  and  _419
REMARK  174  A    between atoms: _419  and  _420
REMARK  175  A    between atoms: _419  and  _422
REMARK  176  A    between atoms: _422  and  _423
REMARK  177  A    between atoms: _426  and  _428
REMARK  178  A    between atoms: _428  and  _429
REMARK  179  A    between atoms: _431  and  _433
REMARK  180  A    between atoms: _433  and  _434
REMARK  181  A    between atoms: _433  and  _436
REMARK  182  A    between atoms: _436  and  _437
REMARK  183  A    between atoms: _437  and  _438
REMARK  184  A    between atoms: _438  and  _439
REMARK  185  A    between atoms: _439  and  _440
REMARK  186  A    between atoms: _444  and  _446
REMARK  187  A    between atoms: _446  and  _447
REMARK  188  A    between atoms: _450  and  _452
REMARK  189  A    between atoms: _452  and  _453
REMARK  190  A    between atoms: _452  and  _455
REMARK  191  A    between atoms: _457  and  _459
REMARK  192  A    between atoms: _459  and  _460
REMARK  193  A    between atoms: _463  and  _465
REMARK  194  A    between atoms: _465  and  _466
REMARK  195  A    between atoms: _465  and  _468
REMARK  196  A    between atoms: _468  and  _469
REMARK  197  A    between atoms: _471  and  _473
REMARK  198  A    between atoms: _473  and  _474
REMARK  199  A    between atoms: _473  and  _476
REMARK  200  A    between atoms: _476  and  _477
REMARK  201  A    between atoms: _480  and  _482
REMARK  202  A    between atoms: _482  and  _483
REMARK  203  A    between atoms: _482  and  _485
REMARK  204  A    between atoms: _485  and  _486
REMARK  205  A    between atoms: _489  and  _491
REMARK  206  A    between atoms: _491  and  _492
REMARK  207  A    between atoms: _491  and  _494
REMARK  208  A    between atoms: _494  and  _495
REMARK  209  A    between atoms: _495  and  _496
REMARK  210  A    between atoms: _501  and  _503
REMARK  211  A    between atoms: _503  and  _504
REMARK  212  A    between atoms: _503  and  _506
REMARK  213  A    between atoms: _506  and  _507
REMARK  214  A    between atoms: _513  and  _515
REMARK  215  A    between atoms: _515  and  _516
REMARK  216  A    between atoms: _515  and  _518
REMARK  217  A    between atoms: _518  and  _519
REMARK  218  A    between atoms: _519  and  _520
REMARK  219  A    between atoms: _520  and  _521
REMARK  220  A    between atoms: _521  and  _522
REMARK  221  A    between atoms: _526  and  _528
REMARK  222  A    between atoms: _528  and  _529
REMARK  223  A    between atoms: _528  and  _531
REMARK  224  A    between atoms: _531  and  _532
REMARK  225  A    between atoms: _537  and  _539
REMARK  226  A    between atoms: _539  and  _540
REMARK  227  A    between atoms: _539  and  _542
REMARK  228  A    between atoms: _542  and  _543
REMARK  229  A    between atoms: _549  and  _551
REMARK  230  A    between atoms: _551  and  _552
REMARK  231  A    between atoms: _551  and  _554
REMARK  232  A    between atoms: _554  and  _555
REMARK  233  A    between atoms: _555  and  _556
REMARK  234  A    between atoms: _559  and  _561
REMARK  235  A    between atoms: _561  and  _562
REMARK  236  A    between atoms: _561  and  _564
REMARK  237  A    between atoms: _564  and  _565
REMARK  238  A    between atoms: _565  and  _566
REMARK  239  A    between atoms: _571  and  _573
REMARK  240  A    between atoms: _573  and  _574
REMARK  241  A    between atoms: _573  and  _576
REMARK  242  A    between atoms: _576  and  _577
REMARK  243  A    between atoms: _577  and  _578
REMARK  244  A    between atoms: _578  and  _579
REMARK  245  A    between atoms: _588  and  _590
REMARK  246  A    between atoms: _590  and  _591
REMARK                            x       y       z     vdW  Elec       q    Type
REMARK                         _______ _______ _______ _____ _____    ______ ____
ROOT
ATOM      1  CA  LYS A   9       6.016  39.153  46.557  0.00  0.00    +0.149 C 
ENDROOT
BRANCH   1   2
ATOM      2  C   LYS A   9       6.084  37.902  47.438  0.00  0.00    +0.241 C 
ATOM      3  O   LYS A   9       7.169  37.434  47.838  0.00  0.00    -0.273 OA
ATOM      4  N   ASN A  10       4.900  37.396  47.764  0.00  0.00    -0.297 N 
ATOM      5  H   ASN A  10       4.047  37.891  47.432  0.00  0.00    +0.150 HD
BRANCH   4   6
ATOM      6  CA  ASN A  10       4.725  36.175  48.568  0.00  0.00    +0.158 C 
BRANCH   6   7
ATOM      7  C   ASN A  10       3.268  35.697  48.527  0.00  0.00    +0.241 C 
ATOM      8  N   PHE A  11       2.997  34.529  49.118  0.00  0.00    -0.297 N 
ATOM      9  H   PHE A  11       3.740  34.010  49.629  0.00  0.00    +0.150 HD
ATOM     10  O   ASN A  10       2.393  36.371  47.936  0.00  0.00    -0.273 OA
BRANCH   8  11
ATOM     11  CA  PHE A  11       1.636  33.992  49.034  0.00  0.00    +0.153 C 
BRANCH  11  12
ATOM     12  C   PHE A  11       0.643  34.866  49.797  0.00  0.00    +0.241 C 
ATOM     13  N   GLU A  12       1.137  35.651  50.767  0.00  0.00    -0.297 N 
ATOM     14  H   GLU A  12       2.148  35.631  51.009  0.00  0.00    +0.150 HD
ATOM     15  O   PHE A  11      -0.558  34.815  49.526  0.00  0.00    -0.273 OA
BRANCH  13  16
ATOM     16  CA  GLU A  12       0.202  36.543  51.480  0.00  0.00    +0.149 C 
BRANCH  16  17
ATOM     17  C   GLU A  12      -0.296  37.613  50.527  0.00  0.00    +0.241 C 
ATOM     18  O   GLU A  12      -1.471  37.943  50.550  0.00  0.00    -0.273 OA
ATOM     19  N   GLN A  13       0.599  38.161  49.710  0.00  0.00    -0.297 N 
ATOM     20  H   GLN A  13       1.600  37.883  49.761  0.00  0.00    +0.150 HD
BRANCH  19  21
ATOM     21  CA  GLN A  13       0.154  39.161  48.738  0.00  0.00    +0.149 C 
BRANCH  21  22
ATOM     22  C   GLN A  13      -0.845  38.565  47.730  0.00  0.00    +0.241 C 
ATOM     23  O   GLN A  13      -1.860  39.207  47.375  0.00  0.00    -0.273 OA
ATOM     24  N   ARG A  14      -0.576  37.351  47.249  0.00  0.00    -0.297 N 
ATOM     25  H   ARG A  14       0.322  36.888  47.494  0.00  0.00    +0.150 HD
BRANCH  24  26
ATOM     26  CA  ARG A  14      -1.525  36.667  46.385  0.00  0.00    +0.149 C 
BRANCH  26  27
ATOM     27  C   ARG A  14      -2.885  36.523  47.052  0.00  0.00    +0.241 C 
ATOM     28  N   GLY A  15      -2.892  36.102  48.308  0.00  0.00    -0.296 N 
ATOM     29  H   GLY A  15      -1.996  35.850  48.772  0.00  0.00    +0.150 HD
ATOM     30  O   ARG A  14      -3.913  36.816  46.448  0.00  0.00    -0.273 OA
BRANCH  28  31
ATOM     31  CA  GLY A  15      -4.153  35.988  49.050  0.00  0.00    +0.163 C 
BRANCH  31  32
ATOM     32  C   GLY A  15      -4.870  37.326  49.268  0.00  0.00    +0.229 C 
ATOM     33  O   GLY A  15      -6.094  37.429  49.116  0.00  0.00    -0.286 OA
ENDBRANCH  31  32
ENDBRANCH  28  31
ENDBRANCH  26  27
BRANCH  26  34
ATOM     34  CB  ARG A  14      -0.942  35.323  45.957  0.00  0.00    +0.033 C 
BRANCH  34  35
ATOM     35  CG  ARG A  14      -1.859  34.467  45.142  0.00  0.00    +0.045 C 
BRANCH  35  36
ATOM     36  CD  ARG A  14      -1.076  33.228  44.636  0.00  0.00    +0.174 C 
BRANCH  36  37
ATOM     37  NE  ARG A  14      -0.758  32.268  45.710  0.00  0.00    -0.265 N 
ATOM     38  HE  ARG A  14      -1.154  32.438  46.657  0.00  0.00    +0.259 HD
ATOM     39  CZ  ARG A  14       0.009  31.197  45.530  0.00  0.00    +0.342 C 
ATOM     40  NH2 ARG A  14       0.256  30.400  46.563  0.00  0.00    -0.292 N 
ATOM     41 HH21 ARG A  14      -0.149  30.618  47.496  0.00  0.00    +0.255 HD
ATOM     42 HH22 ARG A  14       0.854  29.558  46.439  0.00  0.00    +0.255 HD
ATOM     43  NH1 ARG A  14       0.541  30.935  44.318  0.00  0.00    -0.292 N 
ATOM     44 HH11 ARG A  14       1.140  30.096  44.184  0.00  0.00    +0.255 HD
ATOM     45 HH12 ARG A  14       0.352  31.572  43.518  0.00  0.00    +0.255 HD
ENDBRANCH  36  37
ENDBRANCH  35  36
ENDBRANCH  34  35
ENDBRANCH  26  34
ENDBRANCH  24  26
ENDBRANCH  21  22
BRANCH  21  46
ATOM     46  CB  GLN A  13       1.372  39.733  47.989  0.00  0.00    +0.039 C 
BRANCH  46  47
ATOM     47  CG  GLN A  13       1.003  40.915  47.061  0.00  0.00    +0.087 C 
BRANCH  47  48
ATOM     48  CD  GLN A  13       2.182  41.421  46.239  0.00  0.00    +0.219 C 
ATOM     49  NE2 GLN A  13       2.634  42.625  46.548  0.00  0.00    -0.329 N 
ATOM     50 HE21 GLN A  13       2.187  43.167  47.315  0.00  0.00    +0.145 HD
ATOM     51 HE22 GLN A  13       3.436  43.029  46.024  0.00  0.00    +0.145 HD
ATOM     52  OE1 GLN A  13       2.679  40.741  45.339  0.00  0.00    -0.275 OA
ENDBRANCH  47  48
ENDBRANCH  46  47
ENDBRANCH  21  46
ENDBRANCH  19  21
ENDBRANCH  16  17
BRANCH  16  53
ATOM     53  CB  GLU A  12       0.855  37.169  52.722  0.00  0.00    +0.041 C 
BRANCH  53  54
ATOM     54  CG  GLU A  12       1.115  36.160  53.827  0.00  0.00    +0.116 C 
BRANCH  54  55
ATOM     55  CD  GLU A  12       2.532  35.594  53.823  0.00  0.00    +0.365 C 
ATOM     56  OE2 GLU A  12       2.998  35.165  54.913  0.00  0.00    -0.246 OA
ATOM     57  OE1 GLU A  12       3.186  35.593  52.759  0.00  0.00    -0.246 OA
ENDBRANCH  54  55
ENDBRANCH  53  54
ENDBRANCH  16  53
ENDBRANCH  13  16
ENDBRANCH  11  12
BRANCH  11  58
ATOM     58  CB  PHE A  11       1.565  32.510  49.525  0.00  0.00    +0.055 C 
BRANCH  58  59
ATOM     59  CG  PHE A  11       1.700  32.366  51.032  0.00  0.00    -0.020 A 
ATOM     60  CD2 PHE A  11       0.592  32.481  51.876  0.00  0.00    -0.004 A 
ATOM     61  CE2 PHE A  11       0.738  32.397  53.286  0.00  0.00    -0.000 A 
ATOM     62  CZ  PHE A  11       2.007  32.200  53.836  0.00  0.00    -0.000 A 
ATOM     63  CE1 PHE A  11       3.111  32.081  52.985  0.00  0.00    -0.000 A 
ATOM     64  CD1 PHE A  11       2.960  32.169  51.612  0.00  0.00    -0.004 A 
ENDBRANCH  58  59
ENDBRANCH  11  58
ENDBRANCH   8  11
ENDBRANCH   6   7
BRANCH   6  65
ATOM     65  CB  ASN A  10       5.166  36.445  50.019  0.00  0.00    +0.114 C 
BRANCH  65  66
ATOM     66  CG  ASN A  10       4.557  37.721  50.592  0.00  0.00    +0.222 C 
ATOM     67  ND2 ASN A  10       5.375  38.496  51.294  0.00  0.00    -0.329 N 
ATOM     68 HD21 ASN A  10       5.020  39.376  51.720  0.00  0.00    +0.145 HD
ATOM     69 HD22 ASN A  10       6.371  38.223  51.418  0.00  0.00    +0.145 HD
ATOM     70  OD1 ASN A  10       3.354  38.000  50.412  0.00  0.00    -0.275 OA
ENDBRANCH  65  66
ENDBRANCH   6  65
ENDBRANCH   4   6
ENDBRANCH   1   2
BRANCH   1  72
ATOM     71  C   PHE A   8       5.073  38.116  44.548  0.00  0.00    +0.241 C 
ATOM     72  N   LYS A   9       5.030  39.047  45.499  0.00  0.00    -0.297 N 
ATOM     73  H   LYS A   9       4.249  39.734  45.482  0.00  0.00    +0.150 HD
ATOM     74  O   PHE A   8       5.997  37.334  44.405  0.00  0.00    -0.273 OA
BRANCH  71  75
ATOM     75  CA  PHE A   8       3.872  38.055  43.641  0.00  0.00    +0.153 C 
BRANCH  75  77
ATOM     76  C   GLN A   7       3.896  37.927  41.194  0.00  0.00    +0.241 C 
ATOM     77  N   PHE A   8       4.209  37.405  42.372  0.00  0.00    -0.297 N 
ATOM     78  H   PHE A   8       4.715  36.497  42.396  0.00  0.00    +0.150 HD
ATOM     79  O   GLN A   7       3.353  39.056  41.085  0.00  0.00    -0.273 OA
BRANCH  76  80
ATOM     80  CA  GLN A   7       4.169  37.061  39.953  0.00  0.00    +0.149 C 
BRANCH  80  82
ATOM     81  C   ASP A   6       6.002  35.562  39.344  0.00  0.00    +0.241 C 
ATOM     82  N   GLN A   7       4.950  35.825  40.126  0.00  0.00    -0.297 N 
ATOM     83  H   GLN A   7       4.680  35.147  40.867  0.00  0.00    +0.150 HD
ATOM     84  O   ASP A   6       6.389  36.339  38.461  0.00  0.00    -0.273 OA
BRANCH  81  85
ATOM     85  CA  ASP A   6       6.748  34.239  39.585  0.00  0.00    +0.160 C 
BRANCH  85  88
ATOM     86  C   LEU A   5       7.233  34.518  41.945  0.00  0.00    +0.241 C 
ATOM     87  O   LEU A   5       7.975  35.465  41.724  0.00  0.00    -0.273 OA
ATOM     88  N   ASP A   6       6.651  33.805  40.983  0.00  0.00    -0.297 N 
ATOM     89  H   ASP A   6       6.127  32.939  41.223  0.00  0.00    +0.150 HD
BRANCH  86  90
ATOM     90  CA  LEU A   5       6.986  34.078  43.384  0.00  0.00    +0.149 C 
BRANCH  90  92
ATOM     91  C   SER A   4       4.646  33.500  43.508  0.00  0.00    +0.243 C 
ATOM     92  N   LEU A   5       5.916  33.118  43.602  0.00  0.00    -0.297 N 
ATOM     93  H   LEU A   5       6.145  32.130  43.832  0.00  0.00    +0.150 HD
ATOM     94  O   SER A   4       4.312  34.555  42.964  0.00  0.00    -0.273 OA
BRANCH  91  95
ATOM     95  CA  SER A   4       3.597  32.606  44.148  0.00  0.00    +0.178 C 
BRANCH  95  97
ATOM     96  C   ALA A   3       4.020  30.201  43.993  0.00  0.00    +0.241 C 
ATOM     97  N   SER A   4       4.144  31.337  44.667  0.00  0.00    -0.295 N 
ATOM     98  H   SER A   4       4.638  31.333  45.582  0.00  0.00    +0.150 HD
ATOM     99  O   ALA A   3       3.605  30.146  42.827  0.00  0.00    -0.273 OA
BRANCH  96 100
ATOM    100  CA  ALA A   3       4.463  28.947  44.749  0.00  0.00    +0.149 C 
ATOM    101  CB  ALA A   3       5.991  28.839  44.780  0.00  0.00    +0.031 C 
BRANCH 100 104
ATOM    102  C   CYS A   2       2.582  27.539  44.207  0.00  0.00    +0.242 C 
ATOM    103  O   CYS A   2       1.816  28.210  44.942  0.00  0.00    -0.273 OA
ATOM    104  N   ALA A   3       3.885  27.768  44.111  0.00  0.00    -0.297 N 
ATOM    105  H   ALA A   3       4.493  27.110  43.583  0.00  0.00    +0.150 HD
BRANCH 102 106
ATOM    106  CA  CYS A   2       2.065  26.429  43.324  0.00  0.00    +0.160 C 
BRANCH 106 108
ATOM    107  C   ALA A   1       0.490  24.587  43.740  0.00  0.00    +0.238 C 
ATOM    108  N   CYS A   2       0.819  25.867  43.856  0.00  0.00    -0.297 N 
ATOM    109  H   CYS A   2       0.161  26.504  44.349  0.00  0.00    +0.150 HD
ATOM    110  O   ALA A   1       1.281  23.696  43.427  0.00  0.00    -0.274 OA
BRANCH 107 111
ATOM    111  CA  ALA A   1      -0.936  24.244  44.136  0.00  0.00    +0.145 C 
ATOM    112  CB  ALA A   1      -1.513  23.158  43.173  0.00  0.00    +0.028 C 
BRANCH 111 113
ATOM    113  N   ALA A   1      -1.840  25.418  44.253  0.00  0.00    -0.238 NA
ATOM    114  H   ALA A   1      -2.151  25.689  45.208  0.00  0.00    +0.142 HD
ENDBRANCH 111 113
ENDBRANCH 107 111
ENDBRANCH 106 108
BRANCH 106 115
ATOM    115  CB  CYS A   2       1.820  27.081  41.950  0.00  0.00    +0.098 C 
ATOM    116  SG  CYS A   2       1.284  25.971  40.646  0.00  0.00    -0.080 S 
ENDBRANCH 106 115
ENDBRANCH 102 106
ENDBRANCH 100 104
ENDBRANCH  96 100
ENDBRANCH  95  97
BRANCH  95 117
ATOM    117  CB  SER A   4       2.884  33.367  45.274  0.00  0.00    +0.166 C 
BRANCH 117 118
ATOM    118  OG  SER A   4       3.820  33.986  46.122  0.00  0.00    -0.380 OA
ATOM    119  H   SER A   4       4.408  33.297  46.522  0.00  0.00    +0.211 HD
ENDBRANCH 117 118
ENDBRANCH  95 117
ENDBRANCH  91  95
ENDBRANCH  90  92
BRANCH  90 120
ATOM    120  CB  LEU A   5       8.287  33.630  44.060  0.00  0.00    +0.029 C 
BRANCH 120 121
ATOM    121  CG  LEU A   5       8.221  33.349  45.573  0.00  0.00    +0.002 C 
ATOM    122  CD2 LEU A   5       7.621  34.478  46.445  0.00  0.00    +0.000 C 
ATOM    123  CD1 LEU A   5       9.653  33.106  46.021  0.00  0.00    +0.000 C 
ENDBRANCH 120 121
ENDBRANCH  90 120
ENDBRANCH  86  90
ENDBRANCH  85  88
BRANCH  85 124
ATOM    124  CB  ASP A   6       6.259  33.133  38.637  0.00  0.00    +0.143 C 
BRANCH 124 125
ATOM    125  CG  ASP A   6       4.805  32.768  38.858  0.00  0.00    +0.367 C 
ATOM    126  OD2 ASP A   6       4.409  32.600  40.030  0.00  0.00    -0.246 OA
ATOM    127  OD1 ASP A   6       4.056  32.657  37.861  0.00  0.00    -0.246 OA
ENDBRANCH 124 125
ENDBRANCH  85 124
ENDBRANCH  81  85
ENDBRANCH  80  82
BRANCH  80 128
ATOM    128  CB  GLN A   7       2.807  36.683  39.345  0.00  0.00    +0.039 C 
BRANCH 128 129
ATOM    129  CG  GLN A   7       2.930  36.057  37.962  0.00  0.00    +0.087 C 
BRANCH 129 130
ATOM    130  CD  GLN A   7       1.602  35.542  37.409  0.00  0.00    +0.219 C 
ATOM    131  OE1 GLN A   7       0.869  34.796  38.064  0.00  0.00    -0.275 OA
ATOM    132  NE2 GLN A   7       1.303  35.943  36.176  0.00  0.00    -0.329 N 
ATOM    133 HE21 GLN A   7       0.420  35.627  35.726  0.00  0.00    +0.145 HD
ATOM    134 HE22 GLN A   7       1.952  36.572  35.662  0.00  0.00    +0.145 HD
ENDBRANCH 129 130
ENDBRANCH 128 129
ENDBRANCH  80 128
ENDBRANCH  76  80
ENDBRANCH  75  77
BRANCH  75 135
ATOM    135  CB  PHE A   8       2.787  37.234  44.362  0.00  0.00    +0.055 C 
BRANCH 135 136
ATOM    136  CG  PHE A   8       1.507  37.145  43.603  0.00  0.00    -0.020 A 
ATOM    137  CD2 PHE A   8       0.547  38.134  43.744  0.00  0.00    -0.004 A 
ATOM    138  CE2 PHE A   8      -0.669  38.052  43.051  0.00  0.00    -0.000 A 
ATOM    139  CZ  PHE A   8      -0.930  36.992  42.219  0.00  0.00    -0.000 A 
ATOM    140  CE1 PHE A   8       0.020  35.957  42.094  0.00  0.00    -0.000 A 
ATOM    141  CD1 PHE A   8       1.240  36.059  42.790  0.00  0.00    -0.004 A 
ENDBRANCH 135 136
ENDBRANCH  75 135
ENDBRANCH  71  75
ENDBRANCH   1  72
BRANCH   1 142
ATOM    142  CB  LYS A   9       5.661  40.355  47.427  0.00  0.00    +0.029 C 
BRANCH 142 143
ATOM    143  CG  LYS A   9       6.779  40.698  48.376  0.00  0.00    +0.000 C 
BRANCH 143 144
ATOM    144  CD  LYS A   9       6.741  42.148  48.833  0.00  0.00    -0.024 C 
BRANCH 144 145
ATOM    145  CE  LYS A   9       5.673  42.363  49.898  0.00  0.00    -0.086 C 
BRANCH 145 146
ATOM    146  NZ  LYS A   9       6.120  43.383  50.906  0.00  0.00    +0.380 N 
ATOM    147  HZ1 LYS A   9       5.376  43.512  51.621  0.00  0.00    -0.089 HD
ATOM    148  HZ2 LYS A   9       6.992  43.054  51.367  0.00  0.00    -0.089 HD
ATOM    149  HZ3 LYS A   9       6.301  44.287  50.425  0.00  0.00    -0.089 HD
ENDBRANCH 145 146
ENDBRANCH 144 145
ENDBRANCH 143 144
ENDBRANCH 142 143
ENDBRANCH   1 142
TORSDOF 61
REMARK  Name = ../refined-set-2016/2xpc/2xpc_pocket.pdb
REMARK  246 active torsions:
REMARK  status: ('A' for Active; 'I' for Inactive)
REMARK    1  A    between atoms: _1  and  _3
REMARK    2  A    between atoms: _3  and  _4
REMARK    3  A    between atoms: _3  and  _6
REMARK    4  A    between atoms: _6  and  _7
REMARK    5  A    between atoms: _10  and  _12
REMARK    6  A    between atoms: _12  and  _13
REMARK    7  A    between atoms: _12  and  _15
REMARK    8  A    between atoms: _15  and  _16
REMARK    9  A    between atoms: _19  and  _21
REMARK   10  A    between atoms: _21  and  _22
REMARK   11  A    between atoms: _24  and  _26
REMARK   12  A    between atoms: _26  and  _27
REMARK   13  A    between atoms: _26  and  _29
REMARK   14  A    between atoms: _29  and  _30
REMARK   15  A    between atoms: _33  and  _35
REMARK   16  A    between atoms: _35  and  _36
REMARK   17  A    between atoms: _38  and  _40
REMARK   18  A    between atoms: _40  and  _41
REMARK   19  A    between atoms: _40  and  _43
REMARK   20  A    between atoms: _43  and  _44
REMARK   21  A    between atoms: _47  and  _49
REMARK   22  A    between atoms: _49  and  _50
REMARK   23  A    between atoms: _49  and  _52
REMARK   24  A    between atoms: _52  and  _53
REMARK   25  A    between atoms: _56  and  _58
REMARK   26  A    between atoms: _58  and  _59
REMARK   27  A    between atoms: _61  and  _63
REMARK   28  A    between atoms: _63  and  _64
REMARK   29  A    between atoms: _63  and  _66
REMARK   30  A    between atoms: _66  and  _67
REMARK   31  A    between atoms: _67  and  _68
REMARK   32  A    between atoms: _70  and  _72
REMARK   33  A    between atoms: _72  and  _73
REMARK   34  A    between atoms: _72  and  _75
REMARK   35  A    between atoms: _75  and  _76
REMARK   36  A    between atoms: _79  and  _81
REMARK   37  A    between atoms: _81  and  _82
REMARK   38  A    between atoms: _81  and  _84
REMARK   39  A    between atoms: _84  and  _85
REMARK   40  A    between atoms: _88  and  _90
REMARK   41  A    between atoms: _90  and  _91
REMARK   42  A    between atoms: _90  and  _93
REMARK   43  A    between atoms: _93  and  _94
REMARK   44  A    between atoms: _94  and  _95
REMARK   45  A    between atoms: _95  and  _96
REMARK   46  A    between atoms: _106  and  _107
REMARK   47  A    between atoms: _113  and  _114
REMARK   48  A    between atoms: _119  and  _121
REMARK   49  A    between atoms: _121  and  _122
REMARK   50  A    between atoms: _121  and  _124
REMARK   51  A    between atoms: _124  and  _125
REMARK   52  A    between atoms: _130  and  _132
REMARK   53  A    between atoms: _132  and  _133
REMARK   54  A    between atoms: _135  and  _137
REMARK   55  A    between atoms: _137  and  _138
REMARK   56  A    between atoms: _137  and  _140
REMARK   57  A    between atoms: _140  and  _141
REMARK   58  A    between atoms: _143  and  _145
REMARK   59  A    between atoms: _145  and  _146
REMARK   60  A    between atoms: _145  and  _148
REMARK   61  A    between atoms: _148  and  _149
REMARK   62  A    between atoms: _152  and  _154
REMARK   63  A    between atoms: _154  and  _155
REMARK   64  A    between atoms: _154  and  _157
REMARK   65  A    between atoms: _157  and  _158
REMARK   66  A    between atoms: _163  and  _165
REMARK   67  A    between atoms: _165  and  _166
REMARK   68  A    between atoms: _169  and  _171
REMARK   69  A    between atoms: _171  and  _172
REMARK   70  A    between atoms: _171  and  _174
REMARK   71  A    between atoms: _174  and  _175
REMARK   72  A    between atoms: _178  and  _179
REMARK   73  A    between atoms: _184  and  _186
REMARK   74  A    between atoms: _186  and  _187
REMARK   75  A    between atoms: _189  and  _191
REMARK   76  A    between atoms: _191  and  _192
REMARK   77  A    between atoms: _191  and  _194
REMARK   78  A    between atoms: _194  and  _195
REMARK   79  A    between atoms: _198  and  _200
REMARK   80  A    between atoms: _200  and  _201
REMARK   81  A    between atoms: _204  and  _206
REMARK   82  A    between atoms: _206  and  _207
REMARK   83  A    between atoms: _206  and  _209
REMARK   84  A    between atoms: _209  and  _210
REMARK   85  A    between atoms: _215  and  _217
REMARK   86  A    between atoms: _217  and  _218
REMARK   87  A    between atoms: _217  and  _220
REMARK   88  A    between atoms: _220  and  _221
REMARK   89  A    between atoms: _223  and  _225
REMARK   90  A    between atoms: _225  and  _226
REMARK   91  A    between atoms: _225  and  _228
REMARK   92  A    between atoms: _228  and  _229
REMARK   93  A    between atoms: _229  and  _230
REMARK   94  A    between atoms: _230  and  _231
REMARK   95  A    between atoms: _231  and  _232
REMARK   96  A    between atoms: _236  and  _238
REMARK   97  A    between atoms: _238  and  _239
REMARK   98  A    between atoms: _238  and  _241
REMARK   99  A    between atoms: _241  and  _242
REMARK  100  A    between atoms: _247  and  _249
REMARK  101  A    between atoms: _249  and  _250
REMARK  102  A    between atoms: _249  and  _252
REMARK  103  A    between atoms: _252  and  _253
REMARK  104  A    between atoms: _255  and  _257
REMARK  105  A    between atoms: _257  and  _258
REMARK  106  A    between atoms: _257  and  _260
REMARK  107  A    between atoms: _260  and  _261
REMARK  108  A    between atoms: _263  and  _265
REMARK  109  A    between atoms: _265  and  _266
REMARK  110  A    between atoms: _265  and  _268
REMARK  111  A    between atoms: _268  and  _269
REMARK  112  A    between atoms: _275  and  _277
REMARK  113  A    between atoms: _277  and  _278
REMARK  114  A    between atoms: _277  and  _280
REMARK  115  A    between atoms: _280  and  _281
REMARK  116  A    between atoms: _281  and  _282
REMARK  117  A    between atoms: _287  and  _289
REMARK  118  A    between atoms: _289  and  _290
REMARK  119  A    between atoms: _289  and  _292
REMARK  120  A    between atoms: _292  and  _293
REMARK  121  A    between atoms: _296  and  _298
REMARK  122  A    between atoms: _298  and  _299
REMARK  123  A    between atoms: _298  and  _301
REMARK  124  A    between atoms: _301  and  _302
REMARK  125  A    between atoms: _307  and  _309
REMARK  126  A    between atoms: _309  and  _310
REMARK  127  A    between atoms: _309  and  _312
REMARK  128  A    between atoms: _312  and  _313
REMARK  129  A    between atoms: _313  and  _314
REMARK  130  A    between atoms: _316  and  _318
REMARK  131  A    between atoms: _318  and  _319
REMARK  132  A    between atoms: _318  and  _321
REMARK  133  A    between atoms: _321  and  _322
REMARK  134  A    between atoms: _325  and  _327
REMARK  135  A    between atoms: _327  and  _328
REMARK  136  A    between atoms: _327  and  _330
REMARK  137  A    between atoms: _330  and  _331
REMARK  138  A    between atoms: _331  and  _332
REMARK  139  A    between atoms: _332  and  _333
REMARK  140  A    between atoms: _342  and  _344
REMARK  141  A    between atoms: _344  and  _345
REMARK  142  A    between atoms: _344  and  _347
REMARK  143  A    between atoms: _347  and  _348
REMARK  144  A    between atoms: _353  and  _354
REMARK  145  A    between atoms: _356  and  _358
REMARK  146  A    between atoms: _358  and  _359
REMARK  147  A    between atoms: _358  and  _365
REMARK  148  A    between atoms: _359  and  _360
REMARK  149  A    between atoms: _360  and  _361
REMARK  150  A    between atoms: _361  and  _362
REMARK  151  A    between atoms: _362  and  _363
REMARK  152  A    between atoms: _370  and  _372
REMARK  153  A    between atoms: _372  and  _373
REMARK  154  A    between atoms: _372  and  _375
REMARK  155  A    between atoms: _375  and  _376
REMARK  156  A    between atoms: _378  and  _380
REMARK  157  A    between atoms: _380  and  _381
REMARK  158  A    between atoms: _380  and  _383
REMARK  159  A    between atoms: _383  and  _384
REMARK  160  A    between atoms: _384  and  _385
REMARK  161  A    between atoms: _385  and  _386
REMARK  162  A    between atoms: _386  and  _387
REMARK  163  A    between atoms: _391  and  _393
REMARK  164  A    between atoms: _393  and  _394
REMARK  165  A    between atoms: _397  and  _399
REMARK  166  A    between atoms: _399  and  _400
REMARK  167  A    between atoms: _399  and  _402
REMARK  168  A    between atoms: _402  and  _403
REMARK  169  A    between atoms: _406  and  _408
REMARK  170  A    between atoms: _408  and  _409
REMARK  171  A    between atoms: _408  and  _411
REMARK  172  A    between atoms: _411  and  _412
REMARK  173  A    between atoms: _417  and  _419
REMARK  174  A    between atoms: _419  and  _420
REMARK  175  A    between atoms: _419  and  _422
REMARK  176  A    between atoms: _422  and  _423
REMARK  177  A    between atoms: _426  and  _428
REMARK  178  A    between atoms: _428  and  _429
REMARK  179  A    between atoms: _431  and  _433
REMARK  180  A    between atoms: _433  and  _434
REMARK  181  A    between atoms: _433  and  _436
REMARK  182  A    between atoms: _436  and  _437
REMARK  183  A    between atoms: _437  and  _438
REMARK  184  A    between atoms: _438  and  _439
REMARK  185  A    between atoms: _439  and  _440
REMARK  186  A    between atoms: _444  and  _446
REMARK  187  A    between atoms: _446  and  _447
REMARK  188  A    between atoms: _450  and  _452
REMARK  189  A    between atoms: _452  and  _453
REMARK  190  A    between atoms: _452  and  _455
REMARK  191  A    between atoms: _457  and  _459
REMARK  192  A    between atoms: _459  and  _460
REMARK  193  A    between atoms: _463  and  _465
REMARK  194  A    between atoms: _465  and  _466
REMARK  195  A    between atoms: _465  and  _468
REMARK  196  A    between atoms: _468  and  _469
REMARK  197  A    between atoms: _471  and  _473
REMARK  198  A    between atoms: _473  and  _474
REMARK  199  A    between atoms: _473  and  _476
REMARK  200  A    between atoms: _476  and  _477
REMARK  201  A    between atoms: _480  and  _482
REMARK  202  A    between atoms: _482  and  _483
REMARK  203  A    between atoms: _482  and  _485
REMARK  204  A    between atoms: _485  and  _486
REMARK  205  A    between atoms: _489  and  _491
REMARK  206  A    between atoms: _491  and  _492
REMARK  207  A    between atoms: _491  and  _494
REMARK  208  A    between atoms: _494  and  _495
REMARK  209  A    between atoms: _495  and  _496
REMARK  210  A    between atoms: _501  and  _503
REMARK  211  A    between atoms: _503  and  _504
REMARK  212  A    between atoms: _503  and  _506
REMARK  213  A    between atoms: _506  and  _507
REMARK  214  A    between atoms: _513  and  _515
REMARK  215  A    between atoms: _515  and  _516
REMARK  216  A    between atoms: _515  and  _518
REMARK  217  A    between atoms: _518  and  _519
REMARK  218  A    between atoms: _519  and  _520
REMARK  219  A    between atoms: _520  and  _521
REMARK  220  A    between atoms: _521  and  _522
REMARK  221  A    between atoms: _526  and  _528
REMARK  222  A    between atoms: _528  and  _529
REMARK  223  A    between atoms: _528  and  _531
REMARK  224  A    between atoms: _531  and  _532
REMARK  225  A    between atoms: _537  and  _539
REMARK  226  A    between atoms: _539  and  _540
REMARK  227  A    between atoms: _539  and  _542
REMARK  228  A    between atoms: _542  and  _543
REMARK  229  A    between atoms: _549  and  _551
REMARK  230  A    between atoms: _551  and  _552
REMARK  231  A    between atoms: _551  and  _554
REMARK  232  A    between atoms: _554  and  _555
REMARK  233  A    between atoms: _555  and  _556
REMARK  234  A    between atoms: _559  and  _561
REMARK  235  A    between atoms: _561  and  _562
REMARK  236  A    between atoms: _561  and  _564
REMARK  237  A    between atoms: _564  and  _565
REMARK  238  A    between atoms: _565  and  _566
REMARK  239  A    between atoms: _571  and  _573
REMARK  240  A    between atoms: _573  and  _574
REMARK  241  A    between atoms: _573  and  _576
REMARK  242  A    between atoms: _576  and  _577
REMARK  243  A    between atoms: _577  and  _578
REMARK  244  A    between atoms: _578  and  _579
REMARK  245  A    between atoms: _588  and  _590
REMARK  246  A    between atoms: _590  and  _591
REMARK                            x       y       z     vdW  Elec       q    Type
REMARK                         _______ _______ _______ _____ _____    ______ ____
ROOT
ATOM      1  O   HOH     1      19.157  33.373  55.998  0.00  0.00    +0.000 OA
ENDROOT
TORSDOF 0
REMARK  Name = ../refined-set-2016/2xpc/2xpc_pocket.pdb
REMARK  246 active torsions:
REMARK  status: ('A' for Active; 'I' for Inactive)
REMARK    1  A    between atoms: _1  and  _3
REMARK    2  A    between atoms: _3  and  _4
REMARK    3  A    between atoms: _3  and  _6
REMARK    4  A    between atoms: _6  and  _7
REMARK    5  A    between atoms: _10  and  _12
REMARK    6  A    between atoms: _12  and  _13
REMARK    7  A    between atoms: _12  and  _15
REMARK    8  A    between atoms: _15  and  _16
REMARK    9  A    between atoms: _19  and  _21
REMARK   10  A    between atoms: _21  and  _22
REMARK   11  A    between atoms: _24  and  _26
REMARK   12  A    between atoms: _26  and  _27
REMARK   13  A    between atoms: _26  and  _29
REMARK   14  A    between atoms: _29  and  _30
REMARK   15  A    between atoms: _33  and  _35
REMARK   16  A    between atoms: _35  and  _36
REMARK   17  A    between atoms: _38  and  _40
REMARK   18  A    between atoms: _40  and  _41
REMARK   19  A    between atoms: _40  and  _43
REMARK   20  A    between atoms: _43  and  _44
REMARK   21  A    between atoms: _47  and  _49
REMARK   22  A    between atoms: _49  and  _50
REMARK   23  A    between atoms: _49  and  _52
REMARK   24  A    between atoms: _52  and  _53
REMARK   25  A    between atoms: _56  and  _58
REMARK   26  A    between atoms: _58  and  _59
REMARK   27  A    between atoms: _61  and  _63
REMARK   28  A    between atoms: _63  and  _64
REMARK   29  A    between atoms: _63  and  _66
REMARK   30  A    between atoms: _66  and  _67
REMARK   31  A    between atoms: _67  and  _68
REMARK   32  A    between atoms: _70  and  _72
REMARK   33  A    between atoms: _72  and  _73
REMARK   34  A    between atoms: _72  and  _75
REMARK   35  A    between atoms: _75  and  _76
REMARK   36  A    between atoms: _79  and  _81
REMARK   37  A    between atoms: _81  and  _82
REMARK   38  A    between atoms: _81  and  _84
REMARK   39  A    between atoms: _84  and  _85
REMARK   40  A    between atoms: _88  and  _90
REMARK   41  A    between atoms: _90  and  _91
REMARK   42  A    between atoms: _90  and  _93
REMARK   43  A    between atoms: _93  and  _94
REMARK   44  A    between atoms: _94  and  _95
REMARK   45  A    between atoms: _95  and  _96
REMARK   46  A    between atoms: _106  and  _107
REMARK   47  A    between atoms: _113  and  _114
REMARK   48  A    between atoms: _119  and  _121
REMARK   49  A    between atoms: _121  and  _122
REMARK   50  A    between atoms: _121  and  _124
REMARK   51  A    between atoms: _124  and  _125
REMARK   52  A    between atoms: _130  and  _132
REMARK   53  A    between atoms: _132  and  _133
REMARK   54  A    between atoms: _135  and  _137
REMARK   55  A    between atoms: _137  and  _138
REMARK   56  A    between atoms: _137  and  _140
REMARK   57  A    between atoms: _140  and  _141
REMARK   58  A    between atoms: _143  and  _145
REMARK   59  A    between atoms: _145  and  _146
REMARK   60  A    between atoms: _145  and  _148
REMARK   61  A    between atoms: _148  and  _149
REMARK   62  A    between atoms: _152  and  _154
REMARK   63  A    between atoms: _154  and  _155
REMARK   64  A    between atoms: _154  and  _157
REMARK   65  A    between atoms: _157  and  _158
REMARK   66  A    between atoms: _163  and  _165
REMARK   67  A    between atoms: _165  and  _166
REMARK   68  A    between atoms: _169  and  _171
REMARK   69  A    between atoms: _171  and  _172
REMARK   70  A    between atoms: _171  and  _174
REMARK   71  A    between atoms: _174  and  _175
REMARK   72  A    between atoms: _178  and  _179
REMARK   73  A    between atoms: _184  and  _186
REMARK   74  A    between atoms: _186  and  _187
REMARK   75  A    between atoms: _189  and  _191
REMARK   76  A    between atoms: _191  and  _192
REMARK   77  A    between atoms: _191  and  _194
REMARK   78  A    between atoms: _194  and  _195
REMARK   79  A    between atoms: _198  and  _200
REMARK   80  A    between atoms: _200  and  _201
REMARK   81  A    between atoms: _204  and  _206
REMARK   82  A    between atoms: _206  and  _207
REMARK   83  A    between atoms: _206  and  _209
REMARK   84  A    between atoms: _209  and  _210
REMARK   85  A    between atoms: _215  and  _217
REMARK   86  A    between atoms: _217  and  _218
REMARK   87  A    between atoms: _217  and  _220
REMARK   88  A    between atoms: _220  and  _221
REMARK   89  A    between atoms: _223  and  _225
REMARK   90  A    between atoms: _225  and  _226
REMARK   91  A    between atoms: _225  and  _228
REMARK   92  A    between atoms: _228  and  _229
REMARK   93  A    between atoms: _229  and  _230
REMARK   94  A    between atoms: _230  and  _231
REMARK   95  A    between atoms: _231  and  _232
REMARK   96  A    between atoms: _236  and  _238
REMARK   97  A    between atoms: _238  and  _239
REMARK   98  A    between atoms: _238  and  _241
REMARK   99  A    between atoms: _241  and  _242
REMARK  100  A    between atoms: _247  and  _249
REMARK  101  A    between atoms: _249  and  _250
REMARK  102  A    between atoms: _249  and  _252
REMARK  103  A    between atoms: _252  and  _253
REMARK  104  A    between atoms: _255  and  _257
REMARK  105  A    between atoms: _257  and  _258
REMARK  106  A    between atoms: _257  and  _260
REMARK  107  A    between atoms: _260  and  _261
REMARK  108  A    between atoms: _263  and  _265
REMARK  109  A    between atoms: _265  and  _266
REMARK  110  A    between atoms: _265  and  _268
REMARK  111  A    between atoms: _268  and  _269
REMARK  112  A    between atoms: _275  and  _277
REMARK  113  A    between atoms: _277  and  _278
REMARK  114  A    between atoms: _277  and  _280
REMARK  115  A    between atoms: _280  and  _281
REMARK  116  A    between atoms: _281  and  _282
REMARK  117  A    between atoms: _287  and  _289
REMARK  118  A    between atoms: _289  and  _290
REMARK  119  A    between atoms: _289  and  _292
REMARK  120  A    between atoms: _292  and  _293
REMARK  121  A    between atoms: _296  and  _298
REMARK  122  A    between atoms: _298  and  _299
REMARK  123  A    between atoms: _298  and  _301
REMARK  124  A    between atoms: _301  and  _302
REMARK  125  A    between atoms: _307  and  _309
REMARK  126  A    between atoms: _309  and  _310
REMARK  127  A    between atoms: _309  and  _312
REMARK  128  A    between atoms: _312  and  _313
REMARK  129  A    between atoms: _313  and  _314
REMARK  130  A    between atoms: _316  and  _318
REMARK  131  A    between atoms: _318  and  _319
REMARK  132  A    between atoms: _318  and  _321
REMARK  133  A    between atoms: _321  and  _322
REMARK  134  A    between atoms: _325  and  _327
REMARK  135  A    between atoms: _327  and  _328
REMARK  136  A    between atoms: _327  and  _330
REMARK  137  A    between atoms: _330  and  _331
REMARK  138  A    between atoms: _331  and  _332
REMARK  139  A    between atoms: _332  and  _333
REMARK  140  A    between atoms: _342  and  _344
REMARK  141  A    between atoms: _344  and  _345
REMARK  142  A    between atoms: _344  and  _347
REMARK  143  A    between atoms: _347  and  _348
REMARK  144  A    between atoms: _353  and  _354
REMARK  145  A    between atoms: _356  and  _358
REMARK  146  A    between atoms: _358  and  _359
REMARK  147  A    between atoms: _358  and  _365
REMARK  148  A    between atoms: _359  and  _360
REMARK  149  A    between atoms: _360  and  _361
REMARK  150  A    between atoms: _361  and  _362
REMARK  151  A    between atoms: _362  and  _363
REMARK  152  A    between atoms: _370  and  _372
REMARK  153  A    between atoms: _372  and  _373
REMARK  154  A    between atoms: _372  and  _375
REMARK  155  A    between atoms: _375  and  _376
REMARK  156  A    between atoms: _378  and  _380
REMARK  157  A    between atoms: _380  and  _381
REMARK  158  A    between atoms: _380  and  _383
REMARK  159  A    between atoms: _383  and  _384
REMARK  160  A    between atoms: _384  and  _385
REMARK  161  A    between atoms: _385  and  _386
REMARK  162  A    between atoms: _386  and  _387
REMARK  163  A    between atoms: _391  and  _393
REMARK  164  A    between atoms: _393  and  _394
REMARK  165  A    between atoms: _397  and  _399
REMARK  166  A    between atoms: _399  and  _400
REMARK  167  A    between atoms: _399  and  _402
REMARK  168  A    between atoms: _402  and  _403
REMARK  169  A    between atoms: _406  and  _408
REMARK  170  A    between atoms: _408  and  _409
REMARK  171  A    between atoms: _408  and  _411
REMARK  172  A    between atoms: _411  and  _412
REMARK  173  A    between atoms: _417  and  _419
REMARK  174  A    between atoms: _419  and  _420
REMARK  175  A    between atoms: _419  and  _422
REMARK  176  A    between atoms: _422  and  _423
REMARK  177  A    between atoms: _426  and  _428
REMARK  178  A    between atoms: _428  and  _429
REMARK  179  A    between atoms: _431  and  _433
REMARK  180  A    between atoms: _433  and  _434
REMARK  181  A    between atoms: _433  and  _436
REMARK  182  A    between atoms: _436  and  _437
REMARK  183  A    between atoms: _437  and  _438
REMARK  184  A    between atoms: _438  and  _439
REMARK  185  A    between atoms: _439  and  _440
REMARK  186  A    between atoms: _444  and  _446
REMARK  187  A    between atoms: _446  and  _447
REMARK  188  A    between atoms: _450  and  _452
REMARK  189  A    between atoms: _452  and  _453
REMARK  190  A    between atoms: _452  and  _455
REMARK  191  A    between atoms: _457  and  _459
REMARK  192  A    between atoms: _459  and  _460
REMARK  193  A    between atoms: _463  and  _465
REMARK  194  A    between atoms: _465  and  _466
REMARK  195  A    between atoms: _465  and  _468
REMARK  196  A    between atoms: _468  and  _469
REMARK  197  A    between atoms: _471  and  _473
REMARK  198  A    between atoms: _473  and  _474
REMARK  199  A    between atoms: _473  and  _476
REMARK  200  A    between atoms: _476  and  _477
REMARK  201  A    between atoms: _480  and  _482
REMARK  202  A    between atoms: _482  and  _483
REMARK  203  A    between atoms: _482  and  _485
REMARK  204  A    between atoms: _485  and  _486
REMARK  205  A    between atoms: _489  and  _491
REMARK  206  A    between atoms: _491  and  _492
REMARK  207  A    between atoms: _491  and  _494
REMARK  208  A    between atoms: _494  and  _495
REMARK  209  A    between atoms: _495  and  _496
REMARK  210  A    between atoms: _501  and  _503
REMARK  211  A    between atoms: _503  and  _504
REMARK  212  A    between atoms: _503  and  _506
REMARK  213  A    between atoms: _506  and  _507
REMARK  214  A    between atoms: _513  and  _515
REMARK  215  A    between atoms: _515  and  _516
REMARK  216  A    between atoms: _515  and  _518
REMARK  217  A    between atoms: _518  and  _519
REMARK  218  A    between atoms: _519  and  _520
REMARK  219  A    between atoms: _520  and  _521
REMARK  220  A    between atoms: _521  and  _522
REMARK  221  A    between atoms: _526  and  _528
REMARK  222  A    between atoms: _528  and  _529
REMARK  223  A    between atoms: _528  and  _531
REMARK  224  A    between atoms: _531  and  _532
REMARK  225  A    between atoms: _537  and  _539
REMARK  226  A    between atoms: _539  and  _540
REMARK  227  A    between atoms: _539  and  _542
REMARK  228  A    between atoms: _542  and  _543
REMARK  229  A    between atoms: _549  and  _551
REMARK  230  A    between atoms: _551  and  _552
REMARK  231  A    between atoms: _551  and  _554
REMARK  232  A    between atoms: _554  and  _555
REMARK  233  A    between atoms: _555  and  _556
REMARK  234  A    between atoms: _559  and  _561
REMARK  235  A    between atoms: _561  and  _562
REMARK  236  A    between atoms: _561  and  _564
REMARK  237  A    between atoms: _564  and  _565
REMARK  238  A    between atoms: _565  and  _566
REMARK  239  A    between atoms: _571  and  _573
REMARK  240  A    between atoms: _573  and  _574
REMARK  241  A    between atoms: _573  and  _576
REMARK  242  A    between atoms: _576  and  _577
REMARK  243  A    between atoms: _577  and  _578
REMARK  244  A    between atoms: _578  and  _579
REMARK  245  A    between atoms: _588  and  _590
REMARK  246  A    between atoms: _590  and  _591
REMARK                            x       y       z     vdW  Elec       q    Type
REMARK                         _______ _______ _______ _____ _____    ______ ____
ROOT
ATOM      1  O   HOH     1      20.559  34.804  54.718  0.00  0.00    +0.000 OA
ENDROOT
TORSDOF 0
REMARK  Name = ../refined-set-2016/2xpc/2xpc_pocket.pdb
REMARK  246 active torsions:
REMARK  status: ('A' for Active; 'I' for Inactive)
REMARK    1  A    between atoms: _1  and  _3
REMARK    2  A    between atoms: _3  and  _4
REMARK    3  A    between atoms: _3  and  _6
REMARK    4  A    between atoms: _6  and  _7
REMARK    5  A    between atoms: _10  and  _12
REMARK    6  A    between atoms: _12  and  _13
REMARK    7  A    between atoms: _12  and  _15
REMARK    8  A    between atoms: _15  and  _16
REMARK    9  A    between atoms: _19  and  _21
REMARK   10  A    between atoms: _21  and  _22
REMARK   11  A    between atoms: _24  and  _26
REMARK   12  A    between atoms: _26  and  _27
REMARK   13  A    between atoms: _26  and  _29
REMARK   14  A    between atoms: _29  and  _30
REMARK   15  A    between atoms: _33  and  _35
REMARK   16  A    between atoms: _35  and  _36
REMARK   17  A    between atoms: _38  and  _40
REMARK   18  A    between atoms: _40  and  _41
REMARK   19  A    between atoms: _40  and  _43
REMARK   20  A    between atoms: _43  and  _44
REMARK   21  A    between atoms: _47  and  _49
REMARK   22  A    between atoms: _49  and  _50
REMARK   23  A    between atoms: _49  and  _52
REMARK   24  A    between atoms: _52  and  _53
REMARK   25  A    between atoms: _56  and  _58
REMARK   26  A    between atoms: _58  and  _59
REMARK   27  A    between atoms: _61  and  _63
REMARK   28  A    between atoms: _63  and  _64
REMARK   29  A    between atoms: _63  and  _66
REMARK   30  A    between atoms: _66  and  _67
REMARK   31  A    between atoms: _67  and  _68
REMARK   32  A    between atoms: _70  and  _72
REMARK   33  A    between atoms: _72  and  _73
REMARK   34  A    between atoms: _72  and  _75
REMARK   35  A    between atoms: _75  and  _76
REMARK   36  A    between atoms: _79  and  _81
REMARK   37  A    between atoms: _81  and  _82
REMARK   38  A    between atoms: _81  and  _84
REMARK   39  A    between atoms: _84  and  _85
REMARK   40  A    between atoms: _88  and  _90
REMARK   41  A    between atoms: _90  and  _91
REMARK   42  A    between atoms: _90  and  _93
REMARK   43  A    between atoms: _93  and  _94
REMARK   44  A    between atoms: _94  and  _95
REMARK   45  A    between atoms: _95  and  _96
REMARK   46  A    between atoms: _106  and  _107
REMARK   47  A    between atoms: _113  and  _114
REMARK   48  A    between atoms: _119  and  _121
REMARK   49  A    between atoms: _121  and  _122
REMARK   50  A    between atoms: _121  and  _124
REMARK   51  A    between atoms: _124  and  _125
REMARK   52  A    between atoms: _130  and  _132
REMARK   53  A    between atoms: _132  and  _133
REMARK   54  A    between atoms: _135  and  _137
REMARK   55  A    between atoms: _137  and  _138
REMARK   56  A    between atoms: _137  and  _140
REMARK   57  A    between atoms: _140  and  _141
REMARK   58  A    between atoms: _143  and  _145
REMARK   59  A    between atoms: _145  and  _146
REMARK   60  A    between atoms: _145  and  _148
REMARK   61  A    between atoms: _148  and  _149
REMARK   62  A    between atoms: _152  and  _154
REMARK   63  A    between atoms: _154  and  _155
REMARK   64  A    between atoms: _154  and  _157
REMARK   65  A    between atoms: _157  and  _158
REMARK   66  A    between atoms: _163  and  _165
REMARK   67  A    between atoms: _165  and  _166
REMARK   68  A    between atoms: _169  and  _171
REMARK   69  A    between atoms: _171  and  _172
REMARK   70  A    between atoms: _171  and  _174
REMARK   71  A    between atoms: _174  and  _175
REMARK   72  A    between atoms: _178  and  _179
REMARK   73  A    between atoms: _184  and  _186
REMARK   74  A    between atoms: _186  and  _187
REMARK   75  A    between atoms: _189  and  _191
REMARK   76  A    between atoms: _191  and  _192
REMARK   77  A    between atoms: _191  and  _194
REMARK   78  A    between atoms: _194  and  _195
REMARK   79  A    between atoms: _198  and  _200
REMARK   80  A    between atoms: _200  and  _201
REMARK   81  A    between atoms: _204  and  _206
REMARK   82  A    between atoms: _206  and  _207
REMARK   83  A    between atoms: _206  and  _209
REMARK   84  A    between atoms: _209  and  _210
REMARK   85  A    between atoms: _215  and  _217
REMARK   86  A    between atoms: _217  and  _218
REMARK   87  A    between atoms: _217  and  _220
REMARK   88  A    between atoms: _220  and  _221
REMARK   89  A    between atoms: _223  and  _225
REMARK   90  A    between atoms: _225  and  _226
REMARK   91  A    between atoms: _225  and  _228
REMARK   92  A    between atoms: _228  and  _229
REMARK   93  A    between atoms: _229  and  _230
REMARK   94  A    between atoms: _230  and  _231
REMARK   95  A    between atoms: _231  and  _232
REMARK   96  A    between atoms: _236  and  _238
REMARK   97  A    between atoms: _238  and  _239
REMARK   98  A    between atoms: _238  and  _241
REMARK   99  A    between atoms: _241  and  _242
REMARK  100  A    between atoms: _247  and  _249
REMARK  101  A    between atoms: _249  and  _250
REMARK  102  A    between atoms: _249  and  _252
REMARK  103  A    between atoms: _252  and  _253
REMARK  104  A    between atoms: _255  and  _257
REMARK  105  A    between atoms: _257  and  _258
REMARK  106  A    between atoms: _257  and  _260
REMARK  107  A    between atoms: _260  and  _261
REMARK  108  A    between atoms: _263  and  _265
REMARK  109  A    between atoms: _265  and  _266
REMARK  110  A    between atoms: _265  and  _268
REMARK  111  A    between atoms: _268  and  _269
REMARK  112  A    between atoms: _275  and  _277
REMARK  113  A    between atoms: _277  and  _278
REMARK  114  A    between atoms: _277  and  _280
REMARK  115  A    between atoms: _280  and  _281
REMARK  116  A    between atoms: _281  and  _282
REMARK  117  A    between atoms: _287  and  _289
REMARK  118  A    between atoms: _289  and  _290
REMARK  119  A    between atoms: _289  and  _292
REMARK  120  A    between atoms: _292  and  _293
REMARK  121  A    between atoms: _296  and  _298
REMARK  122  A    between atoms: _298  and  _299
REMARK  123  A    between atoms: _298  and  _301
REMARK  124  A    between atoms: _301  and  _302
REMARK  125  A    between atoms: _307  and  _309
REMARK  126  A    between atoms: _309  and  _310
REMARK  127  A    between atoms: _309  and  _312
REMARK  128  A    between atoms: _312  and  _313
REMARK  129  A    between atoms: _313  and  _314
REMARK  130  A    between atoms: _316  and  _318
REMARK  131  A    between atoms: _318  and  _319
REMARK  132  A    between atoms: _318  and  _321
REMARK  133  A    between atoms: _321  and  _322
REMARK  134  A    between atoms: _325  and  _327
REMARK  135  A    between atoms: _327  and  _328
REMARK  136  A    between atoms: _327  and  _330
REMARK  137  A    between atoms: _330  and  _331
REMARK  138  A    between atoms: _331  and  _332
REMARK  139  A    between atoms: _332  and  _333
REMARK  140  A    between atoms: _342  and  _344
REMARK  141  A    between atoms: _344  and  _345
REMARK  142  A    between atoms: _344  and  _347
REMARK  143  A    between atoms: _347  and  _348
REMARK  144  A    between atoms: _353  and  _354
REMARK  145  A    between atoms: _356  and  _358
REMARK  146  A    between atoms: _358  and  _359
REMARK  147  A    between atoms: _358  and  _365
REMARK  148  A    between atoms: _359  and  _360
REMARK  149  A    between atoms: _360  and  _361
REMARK  150  A    between atoms: _361  and  _362
REMARK  151  A    between atoms: _362  and  _363
REMARK  152  A    between atoms: _370  and  _372
REMARK  153  A    between atoms: _372  and  _373
REMARK  154  A    between atoms: _372  and  _375
REMARK  155  A    between atoms: _375  and  _376
REMARK  156  A    between atoms: _378  and  _380
REMARK  157  A    between atoms: _380  and  _381
REMARK  158  A    between atoms: _380  and  _383
REMARK  159  A    between atoms: _383  and  _384
REMARK  160  A    between atoms: _384  and  _385
REMARK  161  A    between atoms: _385  and  _386
REMARK  162  A    between atoms: _386  and  _387
REMARK  163  A    between atoms: _391  and  _393
REMARK  164  A    between atoms: _393  and  _394
REMARK  165  A    between atoms: _397  and  _399
REMARK  166  A    between atoms: _399  and  _400
REMARK  167  A    between atoms: _399  and  _402
REMARK  168  A    between atoms: _402  and  _403
REMARK  169  A    between atoms: _406  and  _408
REMARK  170  A    between atoms: _408  and  _409
REMARK  171  A    between atoms: _408  and  _411
REMARK  172  A    between atoms: _411  and  _412
REMARK  173  A    between atoms: _417  and  _419
REMARK  174  A    between atoms: _419  and  _420
REMARK  175  A    between atoms: _419  and  _422
REMARK  176  A    between atoms: _422  and  _423
REMARK  177  A    between atoms: _426  and  _428
REMARK  178  A    between atoms: _428  and  _429
REMARK  179  A    between atoms: _431  and  _433
REMARK  180  A    between atoms: _433  and  _434
REMARK  181  A    between atoms: _433  and  _436
REMARK  182  A    between atoms: _436  and  _437
REMARK  183  A    between atoms: _437  and  _438
REMARK  184  A    between atoms: _438  and  _439
REMARK  185  A    between atoms: _439  and  _440
REMARK  186  A    between atoms: _444  and  _446
REMARK  187  A    between atoms: _446  and  _447
REMARK  188  A    between atoms: _450  and  _452
REMARK  189  A    between atoms: _452  and  _453
REMARK  190  A    between atoms: _452  and  _455
REMARK  191  A    between atoms: _457  and  _459
REMARK  192  A    between atoms: _459  and  _460
REMARK  193  A    between atoms: _463  and  _465
REMARK  194  A    between atoms: _465  and  _466
REMARK  195  A    between atoms: _465  and  _468
REMARK  196  A    between atoms: _468  and  _469
REMARK  197  A    between atoms: _471  and  _473
REMARK  198  A    between atoms: _473  and  _474
REMARK  199  A    between atoms: _473  and  _476
REMARK  200  A    between atoms: _476  and  _477
REMARK  201  A    between atoms: _480  and  _482
REMARK  202  A    between atoms: _482  and  _483
REMARK  203  A    between atoms: _482  and  _485
REMARK  204  A    between atoms: _485  and  _486
REMARK  205  A    between atoms: _489  and  _491
REMARK  206  A    between atoms: _491  and  _492
REMARK  207  A    between atoms: _491  and  _494
REMARK  208  A    between atoms: _494  and  _495
REMARK  209  A    between atoms: _495  and  _496
REMARK  210  A    between atoms: _501  and  _503
REMARK  211  A    between atoms: _503  and  _504
REMARK  212  A    between atoms: _503  and  _506
REMARK  213  A    between atoms: _506  and  _507
REMARK  214  A    between atoms: _513  and  _515
REMARK  215  A    between atoms: _515  and  _516
REMARK  216  A    between atoms: _515  and  _518
REMARK  217  A    between atoms: _518  and  _519
REMARK  218  A    between atoms: _519  and  _520
REMARK  219  A    between atoms: _520  and  _521
REMARK  220  A    between atoms: _521  and  _522
REMARK  221  A    between atoms: _526  and  _528
REMARK  222  A    between atoms: _528  and  _529
REMARK  223  A    between atoms: _528  and  _531
REMARK  224  A    between atoms: _531  and  _532
REMARK  225  A    between atoms: _537  and  _539
REMARK  226  A    between atoms: _539  and  _540
REMARK  227  A    between atoms: _539  and  _542
REMARK  228  A    between atoms: _542  and  _543
REMARK  229  A    between atoms: _549  and  _551
REMARK  230  A    between atoms: _551  and  _552
REMARK  231  A    between atoms: _551  and  _554
REMARK  232  A    between atoms: _554  and  _555
REMARK  233  A    between atoms: _555  and  _556
REMARK  234  A    between atoms: _559  and  _561
REMARK  235  A    between atoms: _561  and  _562
REMARK  236  A    between atoms: _561  and  _564
REMARK  237  A    between atoms: _564  and  _565
REMARK  238  A    between atoms: _565  and  _566
REMARK  239  A    between atoms: _571  and  _573
REMARK  240  A    between atoms: _573  and  _574
REMARK  241  A    between atoms: _573  and  _576
REMARK  242  A    between atoms: _576  and  _577
REMARK  243  A    between atoms: _577  and  _578
REMARK  244  A    between atoms: _578  and  _579
REMARK  245  A    between atoms: _588  and  _590
REMARK  246  A    between atoms: _590  and  _591
REMARK                            x       y       z     vdW  Elec       q    Type
REMARK                         _______ _______ _______ _____ _____    ______ ____
ROOT
ATOM      1  O   HOH     1      17.658  35.880  52.952  0.00  0.00    +0.000 OA
ENDROOT
TORSDOF 0
REMARK  Name = ../refined-set-2016/2xpc/2xpc_pocket.pdb
REMARK  246 active torsions:
REMARK  status: ('A' for Active; 'I' for Inactive)
REMARK    1  A    between atoms: _1  and  _3
REMARK    2  A    between atoms: _3  and  _4
REMARK    3  A    between atoms: _3  and  _6
REMARK    4  A    between atoms: _6  and  _7
REMARK    5  A    between atoms: _10  and  _12
REMARK    6  A    between atoms: _12  and  _13
REMARK    7  A    between atoms: _12  and  _15
REMARK    8  A    between atoms: _15  and  _16
REMARK    9  A    between atoms: _19  and  _21
REMARK   10  A    between atoms: _21  and  _22
REMARK   11  A    between atoms: _24  and  _26
REMARK   12  A    between atoms: _26  and  _27
REMARK   13  A    between atoms: _26  and  _29
REMARK   14  A    between atoms: _29  and  _30
REMARK   15  A    between atoms: _33  and  _35
REMARK   16  A    between atoms: _35  and  _36
REMARK   17  A    between atoms: _38  and  _40
REMARK   18  A    between atoms: _40  and  _41
REMARK   19  A    between atoms: _40  and  _43
REMARK   20  A    between atoms: _43  and  _44
REMARK   21  A    between atoms: _47  and  _49
REMARK   22  A    between atoms: _49  and  _50
REMARK   23  A    between atoms: _49  and  _52
REMARK   24  A    between atoms: _52  and  _53
REMARK   25  A    between atoms: _56  and  _58
REMARK   26  A    between atoms: _58  and  _59
REMARK   27  A    between atoms: _61  and  _63
REMARK   28  A    between atoms: _63  and  _64
REMARK   29  A    between atoms: _63  and  _66
REMARK   30  A    between atoms: _66  and  _67
REMARK   31  A    between atoms: _67  and  _68
REMARK   32  A    between atoms: _70  and  _72
REMARK   33  A    between atoms: _72  and  _73
REMARK   34  A    between atoms: _72  and  _75
REMARK   35  A    between atoms: _75  and  _76
REMARK   36  A    between atoms: _79  and  _81
REMARK   37  A    between atoms: _81  and  _82
REMARK   38  A    between atoms: _81  and  _84
REMARK   39  A    between atoms: _84  and  _85
REMARK   40  A    between atoms: _88  and  _90
REMARK   41  A    between atoms: _90  and  _91
REMARK   42  A    between atoms: _90  and  _93
REMARK   43  A    between atoms: _93  and  _94
REMARK   44  A    between atoms: _94  and  _95
REMARK   45  A    between atoms: _95  and  _96
REMARK   46  A    between atoms: _106  and  _107
REMARK   47  A    between atoms: _113  and  _114
REMARK   48  A    between atoms: _119  and  _121
REMARK   49  A    between atoms: _121  and  _122
REMARK   50  A    between atoms: _121  and  _124
REMARK   51  A    between atoms: _124  and  _125
REMARK   52  A    between atoms: _130  and  _132
REMARK   53  A    between atoms: _132  and  _133
REMARK   54  A    between atoms: _135  and  _137
REMARK   55  A    between atoms: _137  and  _138
REMARK   56  A    between atoms: _137  and  _140
REMARK   57  A    between atoms: _140  and  _141
REMARK   58  A    between atoms: _143  and  _145
REMARK   59  A    between atoms: _145  and  _146
REMARK   60  A    between atoms: _145  and  _148
REMARK   61  A    between atoms: _148  and  _149
REMARK   62  A    between atoms: _152  and  _154
REMARK   63  A    between atoms: _154  and  _155
REMARK   64  A    between atoms: _154  and  _157
REMARK   65  A    between atoms: _157  and  _158
REMARK   66  A    between atoms: _163  and  _165
REMARK   67  A    between atoms: _165  and  _166
REMARK   68  A    between atoms: _169  and  _171
REMARK   69  A    between atoms: _171  and  _172
REMARK   70  A    between atoms: _171  and  _174
REMARK   71  A    between atoms: _174  and  _175
REMARK   72  A    between atoms: _178  and  _179
REMARK   73  A    between atoms: _184  and  _186
REMARK   74  A    between atoms: _186  and  _187
REMARK   75  A    between atoms: _189  and  _191
REMARK   76  A    between atoms: _191  and  _192
REMARK   77  A    between atoms: _191  and  _194
REMARK   78  A    between atoms: _194  and  _195
REMARK   79  A    between atoms: _198  and  _200
REMARK   80  A    between atoms: _200  and  _201
REMARK   81  A    between atoms: _204  and  _206
REMARK   82  A    between atoms: _206  and  _207
REMARK   83  A    between atoms: _206  and  _209
REMARK   84  A    between atoms: _209  and  _210
REMARK   85  A    between atoms: _215  and  _217
REMARK   86  A    between atoms: _217  and  _218
REMARK   87  A    between atoms: _217  and  _220
REMARK   88  A    between atoms: _220  and  _221
REMARK   89  A    between atoms: _223  and  _225
REMARK   90  A    between atoms: _225  and  _226
REMARK   91  A    between atoms: _225  and  _228
REMARK   92  A    between atoms: _228  and  _229
REMARK   93  A    between atoms: _229  and  _230
REMARK   94  A    between atoms: _230  and  _231
REMARK   95  A    between atoms: _231  and  _232
REMARK   96  A    between atoms: _236  and  _238
REMARK   97  A    between atoms: _238  and  _239
REMARK   98  A    between atoms: _238  and  _241
REMARK   99  A    between atoms: _241  and  _242
REMARK  100  A    between atoms: _247  and  _249
REMARK  101  A    between atoms: _249  and  _250
REMARK  102  A    between atoms: _249  and  _252
REMARK  103  A    between atoms: _252  and  _253
REMARK  104  A    between atoms: _255  and  _257
REMARK  105  A    between atoms: _257  and  _258
REMARK  106  A    between atoms: _257  and  _260
REMARK  107  A    between atoms: _260  and  _261
REMARK  108  A    between atoms: _263  and  _265
REMARK  109  A    between atoms: _265  and  _266
REMARK  110  A    between atoms: _265  and  _268
REMARK  111  A    between atoms: _268  and  _269
REMARK  112  A    between atoms: _275  and  _277
REMARK  113  A    between atoms: _277  and  _278
REMARK  114  A    between atoms: _277  and  _280
REMARK  115  A    between atoms: _280  and  _281
REMARK  116  A    between atoms: _281  and  _282
REMARK  117  A    between atoms: _287  and  _289
REMARK  118  A    between atoms: _289  and  _290
REMARK  119  A    between atoms: _289  and  _292
REMARK  120  A    between atoms: _292  and  _293
REMARK  121  A    between atoms: _296  and  _298
REMARK  122  A    between atoms: _298  and  _299
REMARK  123  A    between atoms: _298  and  _301
REMARK  124  A    between atoms: _301  and  _302
REMARK  125  A    between atoms: _307  and  _309
REMARK  126  A    between atoms: _309  and  _310
REMARK  127  A    between atoms: _309  and  _312
REMARK  128  A    between atoms: _312  and  _313
REMARK  129  A    between atoms: _313  and  _314
REMARK  130  A    between atoms: _316  and  _318
REMARK  131  A    between atoms: _318  and  _319
REMARK  132  A    between atoms: _318  and  _321
REMARK  133  A    between atoms: _321  and  _322
REMARK  134  A    between atoms: _325  and  _327
REMARK  135  A    between atoms: _327  and  _328
REMARK  136  A    between atoms: _327  and  _330
REMARK  137  A    between atoms: _330  and  _331
REMARK  138  A    between atoms: _331  and  _332
REMARK  139  A    between atoms: _332  and  _333
REMARK  140  A    between atoms: _342  and  _344
REMARK  141  A    between atoms: _344  and  _345
REMARK  142  A    between atoms: _344  and  _347
REMARK  143  A    between atoms: _347  and  _348
REMARK  144  A    between atoms: _353  and  _354
REMARK  145  A    between atoms: _356  and  _358
REMARK  146  A    between atoms: _358  and  _359
REMARK  147  A    between atoms: _358  and  _365
REMARK  148  A    between atoms: _359  and  _360
REMARK  149  A    between atoms: _360  and  _361
REMARK  150  A    between atoms: _361  and  _362
REMARK  151  A    between atoms: _362  and  _363
REMARK  152  A    between atoms: _370  and  _372
REMARK  153  A    between atoms: _372  and  _373
REMARK  154  A    between atoms: _372  and  _375
REMARK  155  A    between atoms: _375  and  _376
REMARK  156  A    between atoms: _378  and  _380
REMARK  157  A    between atoms: _380  and  _381
REMARK  158  A    between atoms: _380  and  _383
REMARK  159  A    between atoms: _383  and  _384
REMARK  160  A    between atoms: _384  and  _385
REMARK  161  A    between atoms: _385  and  _386
REMARK  162  A    between atoms: _386  and  _387
REMARK  163  A    between atoms: _391  and  _393
REMARK  164  A    between atoms: _393  and  _394
REMARK  165  A    between atoms: _397  and  _399
REMARK  166  A    between atoms: _399  and  _400
REMARK  167  A    between atoms: _399  and  _402
REMARK  168  A    between atoms: _402  and  _403
REMARK  169  A    between atoms: _406  and  _408
REMARK  170  A    between atoms: _408  and  _409
REMARK  171  A    between atoms: _408  and  _411
REMARK  172  A    between atoms: _411  and  _412
REMARK  173  A    between atoms: _417  and  _419
REMARK  174  A    between atoms: _419  and  _420
REMARK  175  A    between atoms: _419  and  _422
REMARK  176  A    between atoms: _422  and  _423
REMARK  177  A    between atoms: _426  and  _428
REMARK  178  A    between atoms: _428  and  _429
REMARK  179  A    between atoms: _431  and  _433
REMARK  180  A    between atoms: _433  and  _434
REMARK  181  A    between atoms: _433  and  _436
REMARK  182  A    between atoms: _436  and  _437
REMARK  183  A    between atoms: _437  and  _438
REMARK  184  A    between atoms: _438  and  _439
REMARK  185  A    between atoms: _439  and  _440
REMARK  186  A    between atoms: _444  and  _446
REMARK  187  A    between atoms: _446  and  _447
REMARK  188  A    between atoms: _450  and  _452
REMARK  189  A    between atoms: _452  and  _453
REMARK  190  A    between atoms: _452  and  _455
REMARK  191  A    between atoms: _457  and  _459
REMARK  192  A    between atoms: _459  and  _460
REMARK  193  A    between atoms: _463  and  _465
REMARK  194  A    between atoms: _465  and  _466
REMARK  195  A    between atoms: _465  and  _468
REMARK  196  A    between atoms: _468  and  _469
REMARK  197  A    between atoms: _471  and  _473
REMARK  198  A    between atoms: _473  and  _474
REMARK  199  A    between atoms: _473  and  _476
REMARK  200  A    between atoms: _476  and  _477
REMARK  201  A    between atoms: _480  and  _482
REMARK  202  A    between atoms: _482  and  _483
REMARK  203  A    between atoms: _482  and  _485
REMARK  204  A    between atoms: _485  and  _486
REMARK  205  A    between atoms: _489  and  _491
REMARK  206  A    between atoms: _491  and  _492
REMARK  207  A    between atoms: _491  and  _494
REMARK  208  A    between atoms: _494  and  _495
REMARK  209  A    between atoms: _495  and  _496
REMARK  210  A    between atoms: _501  and  _503
REMARK  211  A    between atoms: _503  and  _504
REMARK  212  A    between atoms: _503  and  _506
REMARK  213  A    between atoms: _506  and  _507
REMARK  214  A    between atoms: _513  and  _515
REMARK  215  A    between atoms: _515  and  _516
REMARK  216  A    between atoms: _515  and  _518
REMARK  217  A    between atoms: _518  and  _519
REMARK  218  A    between atoms: _519  and  _520
REMARK  219  A    between atoms: _520  and  _521
REMARK  220  A    between atoms: _521  and  _522
REMARK  221  A    between atoms: _526  and  _528
REMARK  222  A    between atoms: _528  and  _529
REMARK  223  A    between atoms: _528  and  _531
REMARK  224  A    between atoms: _531  and  _532
REMARK  225  A    between atoms: _537  and  _539
REMARK  226  A    between atoms: _539  and  _540
REMARK  227  A    between atoms: _539  and  _542
REMARK  228  A    between atoms: _542  and  _543
REMARK  229  A    between atoms: _549  and  _551
REMARK  230  A    between atoms: _551  and  _552
REMARK  231  A    between atoms: _551  and  _554
REMARK  232  A    between atoms: _554  and  _555
REMARK  233  A    between atoms: _555  and  _556
REMARK  234  A    between atoms: _559  and  _561
REMARK  235  A    between atoms: _561  and  _562
REMARK  236  A    between atoms: _561  and  _564
REMARK  237  A    between atoms: _564  and  _565
REMARK  238  A    between atoms: _565  and  _566
REMARK  239  A    between atoms: _571  and  _573
REMARK  240  A    between atoms: _573  and  _574
REMARK  241  A    between atoms: _573  and  _576
REMARK  242  A    between atoms: _576  and  _577
REMARK  243  A    between atoms: _577  and  _578
REMARK  244  A    between atoms: _578  and  _579
REMARK  245  A    between atoms: _588  and  _590
REMARK  246  A    between atoms: _590  and  _591
REMARK                            x       y       z     vdW  Elec       q    Type
REMARK                         _______ _______ _______ _____ _____    ______ ____
ROOT
ATOM      1  O   HOH     1      13.341  32.740  58.443  0.00  0.00    +0.000 OA
ENDROOT
TORSDOF 0
REMARK  Name = ../refined-set-2016/2xpc/2xpc_pocket.pdb
REMARK  246 active torsions:
REMARK  status: ('A' for Active; 'I' for Inactive)
REMARK    1  A    between atoms: _1  and  _3
REMARK    2  A    between atoms: _3  and  _4
REMARK    3  A    between atoms: _3  and  _6
REMARK    4  A    between atoms: _6  and  _7
REMARK    5  A    between atoms: _10  and  _12
REMARK    6  A    between atoms: _12  and  _13
REMARK    7  A    between atoms: _12  and  _15
REMARK    8  A    between atoms: _15  and  _16
REMARK    9  A    between atoms: _19  and  _21
REMARK   10  A    between atoms: _21  and  _22
REMARK   11  A    between atoms: _24  and  _26
REMARK   12  A    between atoms: _26  and  _27
REMARK   13  A    between atoms: _26  and  _29
REMARK   14  A    between atoms: _29  and  _30
REMARK   15  A    between atoms: _33  and  _35
REMARK   16  A    between atoms: _35  and  _36
REMARK   17  A    between atoms: _38  and  _40
REMARK   18  A    between atoms: _40  and  _41
REMARK   19  A    between atoms: _40  and  _43
REMARK   20  A    between atoms: _43  and  _44
REMARK   21  A    between atoms: _47  and  _49
REMARK   22  A    between atoms: _49  and  _50
REMARK   23  A    between atoms: _49  and  _52
REMARK   24  A    between atoms: _52  and  _53
REMARK   25  A    between atoms: _56  and  _58
REMARK   26  A    between atoms: _58  and  _59
REMARK   27  A    between atoms: _61  and  _63
REMARK   28  A    between atoms: _63  and  _64
REMARK   29  A    between atoms: _63  and  _66
REMARK   30  A    between atoms: _66  and  _67
REMARK   31  A    between atoms: _67  and  _68
REMARK   32  A    between atoms: _70  and  _72
REMARK   33  A    between atoms: _72  and  _73
REMARK   34  A    between atoms: _72  and  _75
REMARK   35  A    between atoms: _75  and  _76
REMARK   36  A    between atoms: _79  and  _81
REMARK   37  A    between atoms: _81  and  _82
REMARK   38  A    between atoms: _81  and  _84
REMARK   39  A    between atoms: _84  and  _85
REMARK   40  A    between atoms: _88  and  _90
REMARK   41  A    between atoms: _90  and  _91
REMARK   42  A    between atoms: _90  and  _93
REMARK   43  A    between atoms: _93  and  _94
REMARK   44  A    between atoms: _94  and  _95
REMARK   45  A    between atoms: _95  and  _96
REMARK   46  A    between atoms: _106  and  _107
REMARK   47  A    between atoms: _113  and  _114
REMARK   48  A    between atoms: _119  and  _121
REMARK   49  A    between atoms: _121  and  _122
REMARK   50  A    between atoms: _121  and  _124
REMARK   51  A    between atoms: _124  and  _125
REMARK   52  A    between atoms: _130  and  _132
REMARK   53  A    between atoms: _132  and  _133
REMARK   54  A    between atoms: _135  and  _137
REMARK   55  A    between atoms: _137  and  _138
REMARK   56  A    between atoms: _137  and  _140
REMARK   57  A    between atoms: _140  and  _141
REMARK   58  A    between atoms: _143  and  _145
REMARK   59  A    between atoms: _145  and  _146
REMARK   60  A    between atoms: _145  and  _148
REMARK   61  A    between atoms: _148  and  _149
REMARK   62  A    between atoms: _152  and  _154
REMARK   63  A    between atoms: _154  and  _155
REMARK   64  A    between atoms: _154  and  _157
REMARK   65  A    between atoms: _157  and  _158
REMARK   66  A    between atoms: _163  and  _165
REMARK   67  A    between atoms: _165  and  _166
REMARK   68  A    between atoms: _169  and  _171
REMARK   69  A    between atoms: _171  and  _172
REMARK   70  A    between atoms: _171  and  _174
REMARK   71  A    between atoms: _174  and  _175
REMARK   72  A    between atoms: _178  and  _179
REMARK   73  A    between atoms: _184  and  _186
REMARK   74  A    between atoms: _186  and  _187
REMARK   75  A    between atoms: _189  and  _191
REMARK   76  A    between atoms: _191  and  _192
REMARK   77  A    between atoms: _191  and  _194
REMARK   78  A    between atoms: _194  and  _195
REMARK   79  A    between atoms: _198  and  _200
REMARK   80  A    between atoms: _200  and  _201
REMARK   81  A    between atoms: _204  and  _206
REMARK   82  A    between atoms: _206  and  _207
REMARK   83  A    between atoms: _206  and  _209
REMARK   84  A    between atoms: _209  and  _210
REMARK   85  A    between atoms: _215  and  _217
REMARK   86  A    between atoms: _217  and  _218
REMARK   87  A    between atoms: _217  and  _220
REMARK   88  A    between atoms: _220  and  _221
REMARK   89  A    between atoms: _223  and  _225
REMARK   90  A    between atoms: _225  and  _226
REMARK   91  A    between atoms: _225  and  _228
REMARK   92  A    between atoms: _228  and  _229
REMARK   93  A    between atoms: _229  and  _230
REMARK   94  A    between atoms: _230  and  _231
REMARK   95  A    between atoms: _231  and  _232
REMARK   96  A    between atoms: _236  and  _238
REMARK   97  A    between atoms: _238  and  _239
REMARK   98  A    between atoms: _238  and  _241
REMARK   99  A    between atoms: _241  and  _242
REMARK  100  A    between atoms: _247  and  _249
REMARK  101  A    between atoms: _249  and  _250
REMARK  102  A    between atoms: _249  and  _252
REMARK  103  A    between atoms: _252  and  _253
REMARK  104  A    between atoms: _255  and  _257
REMARK  105  A    between atoms: _257  and  _258
REMARK  106  A    between atoms: _257  and  _260
REMARK  107  A    between atoms: _260  and  _261
REMARK  108  A    between atoms: _263  and  _265
REMARK  109  A    between atoms: _265  and  _266
REMARK  110  A    between atoms: _265  and  _268
REMARK  111  A    between atoms: _268  and  _269
REMARK  112  A    between atoms: _275  and  _277
REMARK  113  A    between atoms: _277  and  _278
REMARK  114  A    between atoms: _277  and  _280
REMARK  115  A    between atoms: _280  and  _281
REMARK  116  A    between atoms: _281  and  _282
REMARK  117  A    between atoms: _287  and  _289
REMARK  118  A    between atoms: _289  and  _290
REMARK  119  A    between atoms: _289  and  _292
REMARK  120  A    between atoms: _292  and  _293
REMARK  121  A    between atoms: _296  and  _298
REMARK  122  A    between atoms: _298  and  _299
REMARK  123  A    between atoms: _298  and  _301
REMARK  124  A    between atoms: _301  and  _302
REMARK  125  A    between atoms: _307  and  _309
REMARK  126  A    between atoms: _309  and  _310
REMARK  127  A    between atoms: _309  and  _312
REMARK  128  A    between atoms: _312  and  _313
REMARK  129  A    between atoms: _313  and  _314
REMARK  130  A    between atoms: _316  and  _318
REMARK  131  A    between atoms: _318  and  _319
REMARK  132  A    between atoms: _318  and  _321
REMARK  133  A    between atoms: _321  and  _322
REMARK  134  A    between atoms: _325  and  _327
REMARK  135  A    between atoms: _327  and  _328
REMARK  136  A    between atoms: _327  and  _330
REMARK  137  A    between atoms: _330  and  _331
REMARK  138  A    between atoms: _331  and  _332
REMARK  139  A    between atoms: _332  and  _333
REMARK  140  A    between atoms: _342  and  _344
REMARK  141  A    between atoms: _344  and  _345
REMARK  142  A    between atoms: _344  and  _347
REMARK  143  A    between atoms: _347  and  _348
REMARK  144  A    between atoms: _353  and  _354
REMARK  145  A    between atoms: _356  and  _358
REMARK  146  A    between atoms: _358  and  _359
REMARK  147  A    between atoms: _358  and  _365
REMARK  148  A    between atoms: _359  and  _360
REMARK  149  A    between atoms: _360  and  _361
REMARK  150  A    between atoms: _361  and  _362
REMARK  151  A    between atoms: _362  and  _363
REMARK  152  A    between atoms: _370  and  _372
REMARK  153  A    between atoms: _372  and  _373
REMARK  154  A    between atoms: _372  and  _375
REMARK  155  A    between atoms: _375  and  _376
REMARK  156  A    between atoms: _378  and  _380
REMARK  157  A    between atoms: _380  and  _381
REMARK  158  A    between atoms: _380  and  _383
REMARK  159  A    between atoms: _383  and  _384
REMARK  160  A    between atoms: _384  and  _385
REMARK  161  A    between atoms: _385  and  _386
REMARK  162  A    between atoms: _386  and  _387
REMARK  163  A    between atoms: _391  and  _393
REMARK  164  A    between atoms: _393  and  _394
REMARK  165  A    between atoms: _397  and  _399
REMARK  166  A    between atoms: _399  and  _400
REMARK  167  A    between atoms: _399  and  _402
REMARK  168  A    between atoms: _402  and  _403
REMARK  169  A    between atoms: _406  and  _408
REMARK  170  A    between atoms: _408  and  _409
REMARK  171  A    between atoms: _408  and  _411
REMARK  172  A    between atoms: _411  and  _412
REMARK  173  A    between atoms: _417  and  _419
REMARK  174  A    between atoms: _419  and  _420
REMARK  175  A    between atoms: _419  and  _422
REMARK  176  A    between atoms: _422  and  _423
REMARK  177  A    between atoms: _426  and  _428
REMARK  178  A    between atoms: _428  and  _429
REMARK  179  A    between atoms: _431  and  _433
REMARK  180  A    between atoms: _433  and  _434
REMARK  181  A    between atoms: _433  and  _436
REMARK  182  A    between atoms: _436  and  _437
REMARK  183  A    between atoms: _437  and  _438
REMARK  184  A    between atoms: _438  and  _439
REMARK  185  A    between atoms: _439  and  _440
REMARK  186  A    between atoms: _444  and  _446
REMARK  187  A    between atoms: _446  and  _447
REMARK  188  A    between atoms: _450  and  _452
REMARK  189  A    between atoms: _452  and  _453
REMARK  190  A    between atoms: _452  and  _455
REMARK  191  A    between atoms: _457  and  _459
REMARK  192  A    between atoms: _459  and  _460
REMARK  193  A    between atoms: _463  and  _465
REMARK  194  A    between atoms: _465  and  _466
REMARK  195  A    between atoms: _465  and  _468
REMARK  196  A    between atoms: _468  and  _469
REMARK  197  A    between atoms: _471  and  _473
REMARK  198  A    between atoms: _473  and  _474
REMARK  199  A    between atoms: _473  and  _476
REMARK  200  A    between atoms: _476  and  _477
REMARK  201  A    between atoms: _480  and  _482
REMARK  202  A    between atoms: _482  and  _483
REMARK  203  A    between atoms: _482  and  _485
REMARK  204  A    between atoms: _485  and  _486
REMARK  205  A    between atoms: _489  and  _491
REMARK  206  A    between atoms: _491  and  _492
REMARK  207  A    between atoms: _491  and  _494
REMARK  208  A    between atoms: _494  and  _495
REMARK  209  A    between atoms: _495  and  _496
REMARK  210  A    between atoms: _501  and  _503
REMARK  211  A    between atoms: _503  and  _504
REMARK  212  A    between atoms: _503  and  _506
REMARK  213  A    between atoms: _506  and  _507
REMARK  214  A    between atoms: _513  and  _515
REMARK  215  A    between atoms: _515  and  _516
REMARK  216  A    between atoms: _515  and  _518
REMARK  217  A    between atoms: _518  and  _519
REMARK  218  A    between atoms: _519  and  _520
REMARK  219  A    between atoms: _520  and  _521
REMARK  220  A    between atoms: _521  and  _522
REMARK  221  A    between atoms: _526  and  _528
REMARK  222  A    between atoms: _528  and  _529
REMARK  223  A    between atoms: _528  and  _531
REMARK  224  A    between atoms: _531  and  _532
REMARK  225  A    between atoms: _537  and  _539
REMARK  226  A    between atoms: _539  and  _540
REMARK  227  A    between atoms: _539  and  _542
REMARK  228  A    between atoms: _542  and  _543
REMARK  229  A    between atoms: _549  and  _551
REMARK  230  A    between atoms: _551  and  _552
REMARK  231  A    between atoms: _551  and  _554
REMARK  232  A    between atoms: _554  and  _555
REMARK  233  A    between atoms: _555  and  _556
REMARK  234  A    between atoms: _559  and  _561
REMARK  235  A    between atoms: _561  and  _562
REMARK  236  A    between atoms: _561  and  _564
REMARK  237  A    between atoms: _564  and  _565
REMARK  238  A    between atoms: _565  and  _566
REMARK  239  A    between atoms: _571  and  _573
REMARK  240  A    between atoms: _573  and  _574
REMARK  241  A    between atoms: _573  and  _576
REMARK  242  A    between atoms: _576  and  _577
REMARK  243  A    between atoms: _577  and  _578
REMARK  244  A    between atoms: _578  and  _579
REMARK  245  A    between atoms: _588  and  _590
REMARK  246  A    between atoms: _590  and  _591
REMARK                            x       y       z     vdW  Elec       q    Type
REMARK                         _______ _______ _______ _____ _____    ______ ____
ROOT
ATOM      1  O   HOH     1      19.848  32.226  43.531  0.00  0.00    +0.000 OA
ENDROOT
TORSDOF 0
REMARK  Name = ../refined-set-2016/2xpc/2xpc_pocket.pdb
REMARK  246 active torsions:
REMARK  status: ('A' for Active; 'I' for Inactive)
REMARK    1  A    between atoms: _1  and  _3
REMARK    2  A    between atoms: _3  and  _4
REMARK    3  A    between atoms: _3  and  _6
REMARK    4  A    between atoms: _6  and  _7
REMARK    5  A    between atoms: _10  and  _12
REMARK    6  A    between atoms: _12  and  _13
REMARK    7  A    between atoms: _12  and  _15
REMARK    8  A    between atoms: _15  and  _16
REMARK    9  A    between atoms: _19  and  _21
REMARK   10  A    between atoms: _21  and  _22
REMARK   11  A    between atoms: _24  and  _26
REMARK   12  A    between atoms: _26  and  _27
REMARK   13  A    between atoms: _26  and  _29
REMARK   14  A    between atoms: _29  and  _30
REMARK   15  A    between atoms: _33  and  _35
REMARK   16  A    between atoms: _35  and  _36
REMARK   17  A    between atoms: _38  and  _40
REMARK   18  A    between atoms: _40  and  _41
REMARK   19  A    between atoms: _40  and  _43
REMARK   20  A    between atoms: _43  and  _44
REMARK   21  A    between atoms: _47  and  _49
REMARK   22  A    between atoms: _49  and  _50
REMARK   23  A    between atoms: _49  and  _52
REMARK   24  A    between atoms: _52  and  _53
REMARK   25  A    between atoms: _56  and  _58
REMARK   26  A    between atoms: _58  and  _59
REMARK   27  A    between atoms: _61  and  _63
REMARK   28  A    between atoms: _63  and  _64
REMARK   29  A    between atoms: _63  and  _66
REMARK   30  A    between atoms: _66  and  _67
REMARK   31  A    between atoms: _67  and  _68
REMARK   32  A    between atoms: _70  and  _72
REMARK   33  A    between atoms: _72  and  _73
REMARK   34  A    between atoms: _72  and  _75
REMARK   35  A    between atoms: _75  and  _76
REMARK   36  A    between atoms: _79  and  _81
REMARK   37  A    between atoms: _81  and  _82
REMARK   38  A    between atoms: _81  and  _84
REMARK   39  A    between atoms: _84  and  _85
REMARK   40  A    between atoms: _88  and  _90
REMARK   41  A    between atoms: _90  and  _91
REMARK   42  A    between atoms: _90  and  _93
REMARK   43  A    between atoms: _93  and  _94
REMARK   44  A    between atoms: _94  and  _95
REMARK   45  A    between atoms: _95  and  _96
REMARK   46  A    between atoms: _106  and  _107
REMARK   47  A    between atoms: _113  and  _114
REMARK   48  A    between atoms: _119  and  _121
REMARK   49  A    between atoms: _121  and  _122
REMARK   50  A    between atoms: _121  and  _124
REMARK   51  A    between atoms: _124  and  _125
REMARK   52  A    between atoms: _130  and  _132
REMARK   53  A    between atoms: _132  and  _133
REMARK   54  A    between atoms: _135  and  _137
REMARK   55  A    between atoms: _137  and  _138
REMARK   56  A    between atoms: _137  and  _140
REMARK   57  A    between atoms: _140  and  _141
REMARK   58  A    between atoms: _143  and  _145
REMARK   59  A    between atoms: _145  and  _146
REMARK   60  A    between atoms: _145  and  _148
REMARK   61  A    between atoms: _148  and  _149
REMARK   62  A    between atoms: _152  and  _154
REMARK   63  A    between atoms: _154  and  _155
REMARK   64  A    between atoms: _154  and  _157
REMARK   65  A    between atoms: _157  and  _158
REMARK   66  A    between atoms: _163  and  _165
REMARK   67  A    between atoms: _165  and  _166
REMARK   68  A    between atoms: _169  and  _171
REMARK   69  A    between atoms: _171  and  _172
REMARK   70  A    between atoms: _171  and  _174
REMARK   71  A    between atoms: _174  and  _175
REMARK   72  A    between atoms: _178  and  _179
REMARK   73  A    between atoms: _184  and  _186
REMARK   74  A    between atoms: _186  and  _187
REMARK   75  A    between atoms: _189  and  _191
REMARK   76  A    between atoms: _191  and  _192
REMARK   77  A    between atoms: _191  and  _194
REMARK   78  A    between atoms: _194  and  _195
REMARK   79  A    between atoms: _198  and  _200
REMARK   80  A    between atoms: _200  and  _201
REMARK   81  A    between atoms: _204  and  _206
REMARK   82  A    between atoms: _206  and  _207
REMARK   83  A    between atoms: _206  and  _209
REMARK   84  A    between atoms: _209  and  _210
REMARK   85  A    between atoms: _215  and  _217
REMARK   86  A    between atoms: _217  and  _218
REMARK   87  A    between atoms: _217  and  _220
REMARK   88  A    between atoms: _220  and  _221
REMARK   89  A    between atoms: _223  and  _225
REMARK   90  A    between atoms: _225  and  _226
REMARK   91  A    between atoms: _225  and  _228
REMARK   92  A    between atoms: _228  and  _229
REMARK   93  A    between atoms: _229  and  _230
REMARK   94  A    between atoms: _230  and  _231
REMARK   95  A    between atoms: _231  and  _232
REMARK   96  A    between atoms: _236  and  _238
REMARK   97  A    between atoms: _238  and  _239
REMARK   98  A    between atoms: _238  and  _241
REMARK   99  A    between atoms: _241  and  _242
REMARK  100  A    between atoms: _247  and  _249
REMARK  101  A    between atoms: _249  and  _250
REMARK  102  A    between atoms: _249  and  _252
REMARK  103  A    between atoms: _252  and  _253
REMARK  104  A    between atoms: _255  and  _257
REMARK  105  A    between atoms: _257  and  _258
REMARK  106  A    between atoms: _257  and  _260
REMARK  107  A    between atoms: _260  and  _261
REMARK  108  A    between atoms: _263  and  _265
REMARK  109  A    between atoms: _265  and  _266
REMARK  110  A    between atoms: _265  and  _268
REMARK  111  A    between atoms: _268  and  _269
REMARK  112  A    between atoms: _275  and  _277
REMARK  113  A    between atoms: _277  and  _278
REMARK  114  A    between atoms: _277  and  _280
REMARK  115  A    between atoms: _280  and  _281
REMARK  116  A    between atoms: _281  and  _282
REMARK  117  A    between atoms: _287  and  _289
REMARK  118  A    between atoms: _289  and  _290
REMARK  119  A    between atoms: _289  and  _292
REMARK  120  A    between atoms: _292  and  _293
REMARK  121  A    between atoms: _296  and  _298
REMARK  122  A    between atoms: _298  and  _299
REMARK  123  A    between atoms: _298  and  _301
REMARK  124  A    between atoms: _301  and  _302
REMARK  125  A    between atoms: _307  and  _309
REMARK  126  A    between atoms: _309  and  _310
REMARK  127  A    between atoms: _309  and  _312
REMARK  128  A    between atoms: _312  and  _313
REMARK  129  A    between atoms: _313  and  _314
REMARK  130  A    between atoms: _316  and  _318
REMARK  131  A    between atoms: _318  and  _319
REMARK  132  A    between atoms: _318  and  _321
REMARK  133  A    between atoms: _321  and  _322
REMARK  134  A    between atoms: _325  and  _327
REMARK  135  A    between atoms: _327  and  _328
REMARK  136  A    between atoms: _327  and  _330
REMARK  137  A    between atoms: _330  and  _331
REMARK  138  A    between atoms: _331  and  _332
REMARK  139  A    between atoms: _332  and  _333
REMARK  140  A    between atoms: _342  and  _344
REMARK  141  A    between atoms: _344  and  _345
REMARK  142  A    between atoms: _344  and  _347
REMARK  143  A    between atoms: _347  and  _348
REMARK  144  A    between atoms: _353  and  _354
REMARK  145  A    between atoms: _356  and  _358
REMARK  146  A    between atoms: _358  and  _359
REMARK  147  A    between atoms: _358  and  _365
REMARK  148  A    between atoms: _359  and  _360
REMARK  149  A    between atoms: _360  and  _361
REMARK  150  A    between atoms: _361  and  _362
REMARK  151  A    between atoms: _362  and  _363
REMARK  152  A    between atoms: _370  and  _372
REMARK  153  A    between atoms: _372  and  _373
REMARK  154  A    between atoms: _372  and  _375
REMARK  155  A    between atoms: _375  and  _376
REMARK  156  A    between atoms: _378  and  _380
REMARK  157  A    between atoms: _380  and  _381
REMARK  158  A    between atoms: _380  and  _383
REMARK  159  A    between atoms: _383  and  _384
REMARK  160  A    between atoms: _384  and  _385
REMARK  161  A    between atoms: _385  and  _386
REMARK  162  A    between atoms: _386  and  _387
REMARK  163  A    between atoms: _391  and  _393
REMARK  164  A    between atoms: _393  and  _394
REMARK  165  A    between atoms: _397  and  _399
REMARK  166  A    between atoms: _399  and  _400
REMARK  167  A    between atoms: _399  and  _402
REMARK  168  A    between atoms: _402  and  _403
REMARK  169  A    between atoms: _406  and  _408
REMARK  170  A    between atoms: _408  and  _409
REMARK  171  A    between atoms: _408  and  _411
REMARK  172  A    between atoms: _411  and  _412
REMARK  173  A    between atoms: _417  and  _419
REMARK  174  A    between atoms: _419  and  _420
REMARK  175  A    between atoms: _419  and  _422
REMARK  176  A    between atoms: _422  and  _423
REMARK  177  A    between atoms: _426  and  _428
REMARK  178  A    between atoms: _428  and  _429
REMARK  179  A    between atoms: _431  and  _433
REMARK  180  A    between atoms: _433  and  _434
REMARK  181  A    between atoms: _433  and  _436
REMARK  182  A    between atoms: _436  and  _437
REMARK  183  A    between atoms: _437  and  _438
REMARK  184  A    between atoms: _438  and  _439
REMARK  185  A    between atoms: _439  and  _440
REMARK  186  A    between atoms: _444  and  _446
REMARK  187  A    between atoms: _446  and  _447
REMARK  188  A    between atoms: _450  and  _452
REMARK  189  A    between atoms: _452  and  _453
REMARK  190  A    between atoms: _452  and  _455
REMARK  191  A    between atoms: _457  and  _459
REMARK  192  A    between atoms: _459  and  _460
REMARK  193  A    between atoms: _463  and  _465
REMARK  194  A    between atoms: _465  and  _466
REMARK  195  A    between atoms: _465  and  _468
REMARK  196  A    between atoms: _468  and  _469
REMARK  197  A    between atoms: _471  and  _473
REMARK  198  A    between atoms: _473  and  _474
REMARK  199  A    between atoms: _473  and  _476
REMARK  200  A    between atoms: _476  and  _477
REMARK  201  A    between atoms: _480  and  _482
REMARK  202  A    between atoms: _482  and  _483
REMARK  203  A    between atoms: _482  and  _485
REMARK  204  A    between atoms: _485  and  _486
REMARK  205  A    between atoms: _489  and  _491
REMARK  206  A    between atoms: _491  and  _492
REMARK  207  A    between atoms: _491  and  _494
REMARK  208  A    between atoms: _494  and  _495
REMARK  209  A    between atoms: _495  and  _496
REMARK  210  A    between atoms: _501  and  _503
REMARK  211  A    between atoms: _503  and  _504
REMARK  212  A    between atoms: _503  and  _506
REMARK  213  A    between atoms: _506  and  _507
REMARK  214  A    between atoms: _513  and  _515
REMARK  215  A    between atoms: _515  and  _516
REMARK  216  A    between atoms: _515  and  _518
REMARK  217  A    between atoms: _518  and  _519
REMARK  218  A    between atoms: _519  and  _520
REMARK  219  A    between atoms: _520  and  _521
REMARK  220  A    between atoms: _521  and  _522
REMARK  221  A    between atoms: _526  and  _528
REMARK  222  A    between atoms: _528  and  _529
REMARK  223  A    between atoms: _528  and  _531
REMARK  224  A    between atoms: _531  and  _532
REMARK  225  A    between atoms: _537  and  _539
REMARK  226  A    between atoms: _539  and  _540
REMARK  227  A    between atoms: _539  and  _542
REMARK  228  A    between atoms: _542  and  _543
REMARK  229  A    between atoms: _549  and  _551
REMARK  230  A    between atoms: _551  and  _552
REMARK  231  A    between atoms: _551  and  _554
REMARK  232  A    between atoms: _554  and  _555
REMARK  233  A    between atoms: _555  and  _556
REMARK  234  A    between atoms: _559  and  _561
REMARK  235  A    between atoms: _561  and  _562
REMARK  236  A    between atoms: _561  and  _564
REMARK  237  A    between atoms: _564  and  _565
REMARK  238  A    between atoms: _565  and  _566
REMARK  239  A    between atoms: _571  and  _573
REMARK  240  A    between atoms: _573  and  _574
REMARK  241  A    between atoms: _573  and  _576
REMARK  242  A    between atoms: _576  and  _577
REMARK  243  A    between atoms: _577  and  _578
REMARK  244  A    between atoms: _578  and  _579
REMARK  245  A    between atoms: _588  and  _590
REMARK  246  A    between atoms: _590  and  _591
REMARK                            x       y       z     vdW  Elec       q    Type
REMARK                         _______ _______ _______ _____ _____    ______ ____
ROOT
ATOM      1  O   HOH     1      18.294  35.838  42.173  0.00  0.00    +0.000 OA
ENDROOT
TORSDOF 0
REMARK  Name = ../refined-set-2016/2xpc/2xpc_pocket.pdb
REMARK  246 active torsions:
REMARK  status: ('A' for Active; 'I' for Inactive)
REMARK    1  A    between atoms: _1  and  _3
REMARK    2  A    between atoms: _3  and  _4
REMARK    3  A    between atoms: _3  and  _6
REMARK    4  A    between atoms: _6  and  _7
REMARK    5  A    between atoms: _10  and  _12
REMARK    6  A    between atoms: _12  and  _13
REMARK    7  A    between atoms: _12  and  _15
REMARK    8  A    between atoms: _15  and  _16
REMARK    9  A    between atoms: _19  and  _21
REMARK   10  A    between atoms: _21  and  _22
REMARK   11  A    between atoms: _24  and  _26
REMARK   12  A    between atoms: _26  and  _27
REMARK   13  A    between atoms: _26  and  _29
REMARK   14  A    between atoms: _29  and  _30
REMARK   15  A    between atoms: _33  and  _35
REMARK   16  A    between atoms: _35  and  _36
REMARK   17  A    between atoms: _38  and  _40
REMARK   18  A    between atoms: _40  and  _41
REMARK   19  A    between atoms: _40  and  _43
REMARK   20  A    between atoms: _43  and  _44
REMARK   21  A    between atoms: _47  and  _49
REMARK   22  A    between atoms: _49  and  _50
REMARK   23  A    between atoms: _49  and  _52
REMARK   24  A    between atoms: _52  and  _53
REMARK   25  A    between atoms: _56  and  _58
REMARK   26  A    between atoms: _58  and  _59
REMARK   27  A    between atoms: _61  and  _63
REMARK   28  A    between atoms: _63  and  _64
REMARK   29  A    between atoms: _63  and  _66
REMARK   30  A    between atoms: _66  and  _67
REMARK   31  A    between atoms: _67  and  _68
REMARK   32  A    between atoms: _70  and  _72
REMARK   33  A    between atoms: _72  and  _73
REMARK   34  A    between atoms: _72  and  _75
REMARK   35  A    between atoms: _75  and  _76
REMARK   36  A    between atoms: _79  and  _81
REMARK   37  A    between atoms: _81  and  _82
REMARK   38  A    between atoms: _81  and  _84
REMARK   39  A    between atoms: _84  and  _85
REMARK   40  A    between atoms: _88  and  _90
REMARK   41  A    between atoms: _90  and  _91
REMARK   42  A    between atoms: _90  and  _93
REMARK   43  A    between atoms: _93  and  _94
REMARK   44  A    between atoms: _94  and  _95
REMARK   45  A    between atoms: _95  and  _96
REMARK   46  A    between atoms: _106  and  _107
REMARK   47  A    between atoms: _113  and  _114
REMARK   48  A    between atoms: _119  and  _121
REMARK   49  A    between atoms: _121  and  _122
REMARK   50  A    between atoms: _121  and  _124
REMARK   51  A    between atoms: _124  and  _125
REMARK   52  A    between atoms: _130  and  _132
REMARK   53  A    between atoms: _132  and  _133
REMARK   54  A    between atoms: _135  and  _137
REMARK   55  A    between atoms: _137  and  _138
REMARK   56  A    between atoms: _137  and  _140
REMARK   57  A    between atoms: _140  and  _141
REMARK   58  A    between atoms: _143  and  _145
REMARK   59  A    between atoms: _145  and  _146
REMARK   60  A    between atoms: _145  and  _148
REMARK   61  A    between atoms: _148  and  _149
REMARK   62  A    between atoms: _152  and  _154
REMARK   63  A    between atoms: _154  and  _155
REMARK   64  A    between atoms: _154  and  _157
REMARK   65  A    between atoms: _157  and  _158
REMARK   66  A    between atoms: _163  and  _165
REMARK   67  A    between atoms: _165  and  _166
REMARK   68  A    between atoms: _169  and  _171
REMARK   69  A    between atoms: _171  and  _172
REMARK   70  A    between atoms: _171  and  _174
REMARK   71  A    between atoms: _174  and  _175
REMARK   72  A    between atoms: _178  and  _179
REMARK   73  A    between atoms: _184  and  _186
REMARK   74  A    between atoms: _186  and  _187
REMARK   75  A    between atoms: _189  and  _191
REMARK   76  A    between atoms: _191  and  _192
REMARK   77  A    between atoms: _191  and  _194
REMARK   78  A    between atoms: _194  and  _195
REMARK   79  A    between atoms: _198  and  _200
REMARK   80  A    between atoms: _200  and  _201
REMARK   81  A    between atoms: _204  and  _206
REMARK   82  A    between atoms: _206  and  _207
REMARK   83  A    between atoms: _206  and  _209
REMARK   84  A    between atoms: _209  and  _210
REMARK   85  A    between atoms: _215  and  _217
REMARK   86  A    between atoms: _217  and  _218
REMARK   87  A    between atoms: _217  and  _220
REMARK   88  A    between atoms: _220  and  _221
REMARK   89  A    between atoms: _223  and  _225
REMARK   90  A    between atoms: _225  and  _226
REMARK   91  A    between atoms: _225  and  _228
REMARK   92  A    between atoms: _228  and  _229
REMARK   93  A    between atoms: _229  and  _230
REMARK   94  A    between atoms: _230  and  _231
REMARK   95  A    between atoms: _231  and  _232
REMARK   96  A    between atoms: _236  and  _238
REMARK   97  A    between atoms: _238  and  _239
REMARK   98  A    between atoms: _238  and  _241
REMARK   99  A    between atoms: _241  and  _242
REMARK  100  A    between atoms: _247  and  _249
REMARK  101  A    between atoms: _249  and  _250
REMARK  102  A    between atoms: _249  and  _252
REMARK  103  A    between atoms: _252  and  _253
REMARK  104  A    between atoms: _255  and  _257
REMARK  105  A    between atoms: _257  and  _258
REMARK  106  A    between atoms: _257  and  _260
REMARK  107  A    between atoms: _260  and  _261
REMARK  108  A    between atoms: _263  and  _265
REMARK  109  A    between atoms: _265  and  _266
REMARK  110  A    between atoms: _265  and  _268
REMARK  111  A    between atoms: _268  and  _269
REMARK  112  A    between atoms: _275  and  _277
REMARK  113  A    between atoms: _277  and  _278
REMARK  114  A    between atoms: _277  and  _280
REMARK  115  A    between atoms: _280  and  _281
REMARK  116  A    between atoms: _281  and  _282
REMARK  117  A    between atoms: _287  and  _289
REMARK  118  A    between atoms: _289  and  _290
REMARK  119  A    between atoms: _289  and  _292
REMARK  120  A    between atoms: _292  and  _293
REMARK  121  A    between atoms: _296  and  _298
REMARK  122  A    between atoms: _298  and  _299
REMARK  123  A    between atoms: _298  and  _301
REMARK  124  A    between atoms: _301  and  _302
REMARK  125  A    between atoms: _307  and  _309
REMARK  126  A    between atoms: _309  and  _310
REMARK  127  A    between atoms: _309  and  _312
REMARK  128  A    between atoms: _312  and  _313
REMARK  129  A    between atoms: _313  and  _314
REMARK  130  A    between atoms: _316  and  _318
REMARK  131  A    between atoms: _318  and  _319
REMARK  132  A    between atoms: _318  and  _321
REMARK  133  A    between atoms: _321  and  _322
REMARK  134  A    between atoms: _325  and  _327
REMARK  135  A    between atoms: _327  and  _328
REMARK  136  A    between atoms: _327  and  _330
REMARK  137  A    between atoms: _330  and  _331
REMARK  138  A    between atoms: _331  and  _332
REMARK  139  A    between atoms: _332  and  _333
REMARK  140  A    between atoms: _342  and  _344
REMARK  141  A    between atoms: _344  and  _345
REMARK  142  A    between atoms: _344  and  _347
REMARK  143  A    between atoms: _347  and  _348
REMARK  144  A    between atoms: _353  and  _354
REMARK  145  A    between atoms: _356  and  _358
REMARK  146  A    between atoms: _358  and  _359
REMARK  147  A    between atoms: _358  and  _365
REMARK  148  A    between atoms: _359  and  _360
REMARK  149  A    between atoms: _360  and  _361
REMARK  150  A    between atoms: _361  and  _362
REMARK  151  A    between atoms: _362  and  _363
REMARK  152  A    between atoms: _370  and  _372
REMARK  153  A    between atoms: _372  and  _373
REMARK  154  A    between atoms: _372  and  _375
REMARK  155  A    between atoms: _375  and  _376
REMARK  156  A    between atoms: _378  and  _380
REMARK  157  A    between atoms: _380  and  _381
REMARK  158  A    between atoms: _380  and  _383
REMARK  159  A    between atoms: _383  and  _384
REMARK  160  A    between atoms: _384  and  _385
REMARK  161  A    between atoms: _385  and  _386
REMARK  162  A    between atoms: _386  and  _387
REMARK  163  A    between atoms: _391  and  _393
REMARK  164  A    between atoms: _393  and  _394
REMARK  165  A    between atoms: _397  and  _399
REMARK  166  A    between atoms: _399  and  _400
REMARK  167  A    between atoms: _399  and  _402
REMARK  168  A    between atoms: _402  and  _403
REMARK  169  A    between atoms: _406  and  _408
REMARK  170  A    between atoms: _408  and  _409
REMARK  171  A    between atoms: _408  and  _411
REMARK  172  A    between atoms: _411  and  _412
REMARK  173  A    between atoms: _417  and  _419
REMARK  174  A    between atoms: _419  and  _420
REMARK  175  A    between atoms: _419  and  _422
REMARK  176  A    between atoms: _422  and  _423
REMARK  177  A    between atoms: _426  and  _428
REMARK  178  A    between atoms: _428  and  _429
REMARK  179  A    between atoms: _431  and  _433
REMARK  180  A    between atoms: _433  and  _434
REMARK  181  A    between atoms: _433  and  _436
REMARK  182  A    between atoms: _436  and  _437
REMARK  183  A    between atoms: _437  and  _438
REMARK  184  A    between atoms: _438  and  _439
REMARK  185  A    between atoms: _439  and  _440
REMARK  186  A    between atoms: _444  and  _446
REMARK  187  A    between atoms: _446  and  _447
REMARK  188  A    between atoms: _450  and  _452
REMARK  189  A    between atoms: _452  and  _453
REMARK  190  A    between atoms: _452  and  _455
REMARK  191  A    between atoms: _457  and  _459
REMARK  192  A    between atoms: _459  and  _460
REMARK  193  A    between atoms: _463  and  _465
REMARK  194  A    between atoms: _465  and  _466
REMARK  195  A    between atoms: _465  and  _468
REMARK  196  A    between atoms: _468  and  _469
REMARK  197  A    between atoms: _471  and  _473
REMARK  198  A    between atoms: _473  and  _474
REMARK  199  A    between atoms: _473  and  _476
REMARK  200  A    between atoms: _476  and  _477
REMARK  201  A    between atoms: _480  and  _482
REMARK  202  A    between atoms: _482  and  _483
REMARK  203  A    between atoms: _482  and  _485
REMARK  204  A    between atoms: _485  and  _486
REMARK  205  A    between atoms: _489  and  _491
REMARK  206  A    between atoms: _491  and  _492
REMARK  207  A    between atoms: _491  and  _494
REMARK  208  A    between atoms: _494  and  _495
REMARK  209  A    between atoms: _495  and  _496
REMARK  210  A    between atoms: _501  and  _503
REMARK  211  A    between atoms: _503  and  _504
REMARK  212  A    between atoms: _503  and  _506
REMARK  213  A    between atoms: _506  and  _507
REMARK  214  A    between atoms: _513  and  _515
REMARK  215  A    between atoms: _515  and  _516
REMARK  216  A    between atoms: _515  and  _518
REMARK  217  A    between atoms: _518  and  _519
REMARK  218  A    between atoms: _519  and  _520
REMARK  219  A    between atoms: _520  and  _521
REMARK  220  A    between atoms: _521  and  _522
REMARK  221  A    between atoms: _526  and  _528
REMARK  222  A    between atoms: _528  and  _529
REMARK  223  A    between atoms: _528  and  _531
REMARK  224  A    between atoms: _531  and  _532
REMARK  225  A    between atoms: _537  and  _539
REMARK  226  A    between atoms: _539  and  _540
REMARK  227  A    between atoms: _539  and  _542
REMARK  228  A    between atoms: _542  and  _543
REMARK  229  A    between atoms: _549  and  _551
REMARK  230  A    between atoms: _551  and  _552
REMARK  231  A    between atoms: _551  and  _554
REMARK  232  A    between atoms: _554  and  _555
REMARK  233  A    between atoms: _555  and  _556
REMARK  234  A    between atoms: _559  and  _561
REMARK  235  A    between atoms: _561  and  _562
REMARK  236  A    between atoms: _561  and  _564
REMARK  237  A    between atoms: _564  and  _565
REMARK  238  A    between atoms: _565  and  _566
REMARK  239  A    between atoms: _571  and  _573
REMARK  240  A    between atoms: _573  and  _574
REMARK  241  A    between atoms: _573  and  _576
REMARK  242  A    between atoms: _576  and  _577
REMARK  243  A    between atoms: _577  and  _578
REMARK  244  A    between atoms: _578  and  _579
REMARK  245  A    between atoms: _588  and  _590
REMARK  246  A    between atoms: _590  and  _591
REMARK                            x       y       z     vdW  Elec       q    Type
REMARK                         _______ _______ _______ _____ _____    ______ ____
ROOT
ATOM      1  O   HOH     1      13.649  37.738  51.037  0.00  0.00    +0.000 OA
ENDROOT
TORSDOF 0
REMARK  Name = ../refined-set-2016/2xpc/2xpc_pocket.pdb
REMARK  246 active torsions:
REMARK  status: ('A' for Active; 'I' for Inactive)
REMARK    1  A    between atoms: _1  and  _3
REMARK    2  A    between atoms: _3  and  _4
REMARK    3  A    between atoms: _3  and  _6
REMARK    4  A    between atoms: _6  and  _7
REMARK    5  A    between atoms: _10  and  _12
REMARK    6  A    between atoms: _12  and  _13
REMARK    7  A    between atoms: _12  and  _15
REMARK    8  A    between atoms: _15  and  _16
REMARK    9  A    between atoms: _19  and  _21
REMARK   10  A    between atoms: _21  and  _22
REMARK   11  A    between atoms: _24  and  _26
REMARK   12  A    between atoms: _26  and  _27
REMARK   13  A    between atoms: _26  and  _29
REMARK   14  A    between atoms: _29  and  _30
REMARK   15  A    between atoms: _33  and  _35
REMARK   16  A    between atoms: _35  and  _36
REMARK   17  A    between atoms: _38  and  _40
REMARK   18  A    between atoms: _40  and  _41
REMARK   19  A    between atoms: _40  and  _43
REMARK   20  A    between atoms: _43  and  _44
REMARK   21  A    between atoms: _47  and  _49
REMARK   22  A    between atoms: _49  and  _50
REMARK   23  A    between atoms: _49  and  _52
REMARK   24  A    between atoms: _52  and  _53
REMARK   25  A    between atoms: _56  and  _58
REMARK   26  A    between atoms: _58  and  _59
REMARK   27  A    between atoms: _61  and  _63
REMARK   28  A    between atoms: _63  and  _64
REMARK   29  A    between atoms: _63  and  _66
REMARK   30  A    between atoms: _66  and  _67
REMARK   31  A    between atoms: _67  and  _68
REMARK   32  A    between atoms: _70  and  _72
REMARK   33  A    between atoms: _72  and  _73
REMARK   34  A    between atoms: _72  and  _75
REMARK   35  A    between atoms: _75  and  _76
REMARK   36  A    between atoms: _79  and  _81
REMARK   37  A    between atoms: _81  and  _82
REMARK   38  A    between atoms: _81  and  _84
REMARK   39  A    between atoms: _84  and  _85
REMARK   40  A    between atoms: _88  and  _90
REMARK   41  A    between atoms: _90  and  _91
REMARK   42  A    between atoms: _90  and  _93
REMARK   43  A    between atoms: _93  and  _94
REMARK   44  A    between atoms: _94  and  _95
REMARK   45  A    between atoms: _95  and  _96
REMARK   46  A    between atoms: _106  and  _107
REMARK   47  A    between atoms: _113  and  _114
REMARK   48  A    between atoms: _119  and  _121
REMARK   49  A    between atoms: _121  and  _122
REMARK   50  A    between atoms: _121  and  _124
REMARK   51  A    between atoms: _124  and  _125
REMARK   52  A    between atoms: _130  and  _132
REMARK   53  A    between atoms: _132  and  _133
REMARK   54  A    between atoms: _135  and  _137
REMARK   55  A    between atoms: _137  and  _138
REMARK   56  A    between atoms: _137  and  _140
REMARK   57  A    between atoms: _140  and  _141
REMARK   58  A    between atoms: _143  and  _145
REMARK   59  A    between atoms: _145  and  _146
REMARK   60  A    between atoms: _145  and  _148
REMARK   61  A    between atoms: _148  and  _149
REMARK   62  A    between atoms: _152  and  _154
REMARK   63  A    between atoms: _154  and  _155
REMARK   64  A    between atoms: _154  and  _157
REMARK   65  A    between atoms: _157  and  _158
REMARK   66  A    between atoms: _163  and  _165
REMARK   67  A    between atoms: _165  and  _166
REMARK   68  A    between atoms: _169  and  _171
REMARK   69  A    between atoms: _171  and  _172
REMARK   70  A    between atoms: _171  and  _174
REMARK   71  A    between atoms: _174  and  _175
REMARK   72  A    between atoms: _178  and  _179
REMARK   73  A    between atoms: _184  and  _186
REMARK   74  A    between atoms: _186  and  _187
REMARK   75  A    between atoms: _189  and  _191
REMARK   76  A    between atoms: _191  and  _192
REMARK   77  A    between atoms: _191  and  _194
REMARK   78  A    between atoms: _194  and  _195
REMARK   79  A    between atoms: _198  and  _200
REMARK   80  A    between atoms: _200  and  _201
REMARK   81  A    between atoms: _204  and  _206
REMARK   82  A    between atoms: _206  and  _207
REMARK   83  A    between atoms: _206  and  _209
REMARK   84  A    between atoms: _209  and  _210
REMARK   85  A    between atoms: _215  and  _217
REMARK   86  A    between atoms: _217  and  _218
REMARK   87  A    between atoms: _217  and  _220
REMARK   88  A    between atoms: _220  and  _221
REMARK   89  A    between atoms: _223  and  _225
REMARK   90  A    between atoms: _225  and  _226
REMARK   91  A    between atoms: _225  and  _228
REMARK   92  A    between atoms: _228  and  _229
REMARK   93  A    between atoms: _229  and  _230
REMARK   94  A    between atoms: _230  and  _231
REMARK   95  A    between atoms: _231  and  _232
REMARK   96  A    between atoms: _236  and  _238
REMARK   97  A    between atoms: _238  and  _239
REMARK   98  A    between atoms: _238  and  _241
REMARK   99  A    between atoms: _241  and  _242
REMARK  100  A    between atoms: _247  and  _249
REMARK  101  A    between atoms: _249  and  _250
REMARK  102  A    between atoms: _249  and  _252
REMARK  103  A    between atoms: _252  and  _253
REMARK  104  A    between atoms: _255  and  _257
REMARK  105  A    between atoms: _257  and  _258
REMARK  106  A    between atoms: _257  and  _260
REMARK  107  A    between atoms: _260  and  _261
REMARK  108  A    between atoms: _263  and  _265
REMARK  109  A    between atoms: _265  and  _266
REMARK  110  A    between atoms: _265  and  _268
REMARK  111  A    between atoms: _268  and  _269
REMARK  112  A    between atoms: _275  and  _277
REMARK  113  A    between atoms: _277  and  _278
REMARK  114  A    between atoms: _277  and  _280
REMARK  115  A    between atoms: _280  and  _281
REMARK  116  A    between atoms: _281  and  _282
REMARK  117  A    between atoms: _287  and  _289
REMARK  118  A    between atoms: _289  and  _290
REMARK  119  A    between atoms: _289  and  _292
REMARK  120  A    between atoms: _292  and  _293
REMARK  121  A    between atoms: _296  and  _298
REMARK  122  A    between atoms: _298  and  _299
REMARK  123  A    between atoms: _298  and  _301
REMARK  124  A    between atoms: _301  and  _302
REMARK  125  A    between atoms: _307  and  _309
REMARK  126  A    between atoms: _309  and  _310
REMARK  127  A    between atoms: _309  and  _312
REMARK  128  A    between atoms: _312  and  _313
REMARK  129  A    between atoms: _313  and  _314
REMARK  130  A    between atoms: _316  and  _318
REMARK  131  A    between atoms: _318  and  _319
REMARK  132  A    between atoms: _318  and  _321
REMARK  133  A    between atoms: _321  and  _322
REMARK  134  A    between atoms: _325  and  _327
REMARK  135  A    between atoms: _327  and  _328
REMARK  136  A    between atoms: _327  and  _330
REMARK  137  A    between atoms: _330  and  _331
REMARK  138  A    between atoms: _331  and  _332
REMARK  139  A    between atoms: _332  and  _333
REMARK  140  A    between atoms: _342  and  _344
REMARK  141  A    between atoms: _344  and  _345
REMARK  142  A    between atoms: _344  and  _347
REMARK  143  A    between atoms: _347  and  _348
REMARK  144  A    between atoms: _353  and  _354
REMARK  145  A    between atoms: _356  and  _358
REMARK  146  A    between atoms: _358  and  _359
REMARK  147  A    between atoms: _358  and  _365
REMARK  148  A    between atoms: _359  and  _360
REMARK  149  A    between atoms: _360  and  _361
REMARK  150  A    between atoms: _361  and  _362
REMARK  151  A    between atoms: _362  and  _363
REMARK  152  A    between atoms: _370  and  _372
REMARK  153  A    between atoms: _372  and  _373
REMARK  154  A    between atoms: _372  and  _375
REMARK  155  A    between atoms: _375  and  _376
REMARK  156  A    between atoms: _378  and  _380
REMARK  157  A    between atoms: _380  and  _381
REMARK  158  A    between atoms: _380  and  _383
REMARK  159  A    between atoms: _383  and  _384
REMARK  160  A    between atoms: _384  and  _385
REMARK  161  A    between atoms: _385  and  _386
REMARK  162  A    between atoms: _386  and  _387
REMARK  163  A    between atoms: _391  and  _393
REMARK  164  A    between atoms: _393  and  _394
REMARK  165  A    between atoms: _397  and  _399
REMARK  166  A    between atoms: _399  and  _400
REMARK  167  A    between atoms: _399  and  _402
REMARK  168  A    between atoms: _402  and  _403
REMARK  169  A    between atoms: _406  and  _408
REMARK  170  A    between atoms: _408  and  _409
REMARK  171  A    between atoms: _408  and  _411
REMARK  172  A    between atoms: _411  and  _412
REMARK  173  A    between atoms: _417  and  _419
REMARK  174  A    between atoms: _419  and  _420
REMARK  175  A    between atoms: _419  and  _422
REMARK  176  A    between atoms: _422  and  _423
REMARK  177  A    between atoms: _426  and  _428
REMARK  178  A    between atoms: _428  and  _429
REMARK  179  A    between atoms: _431  and  _433
REMARK  180  A    between atoms: _433  and  _434
REMARK  181  A    between atoms: _433  and  _436
REMARK  182  A    between atoms: _436  and  _437
REMARK  183  A    between atoms: _437  and  _438
REMARK  184  A    between atoms: _438  and  _439
REMARK  185  A    between atoms: _439  and  _440
REMARK  186  A    between atoms: _444  and  _446
REMARK  187  A    between atoms: _446  and  _447
REMARK  188  A    between atoms: _450  and  _452
REMARK  189  A    between atoms: _452  and  _453
REMARK  190  A    between atoms: _452  and  _455
REMARK  191  A    between atoms: _457  and  _459
REMARK  192  A    between atoms: _459  and  _460
REMARK  193  A    between atoms: _463  and  _465
REMARK  194  A    between atoms: _465  and  _466
REMARK  195  A    between atoms: _465  and  _468
REMARK  196  A    between atoms: _468  and  _469
REMARK  197  A    between atoms: _471  and  _473
REMARK  198  A    between atoms: _473  and  _474
REMARK  199  A    between atoms: _473  and  _476
REMARK  200  A    between atoms: _476  and  _477
REMARK  201  A    between atoms: _480  and  _482
REMARK  202  A    between atoms: _482  and  _483
REMARK  203  A    between atoms: _482  and  _485
REMARK  204  A    between atoms: _485  and  _486
REMARK  205  A    between atoms: _489  and  _491
REMARK  206  A    between atoms: _491  and  _492
REMARK  207  A    between atoms: _491  and  _494
REMARK  208  A    between atoms: _494  and  _495
REMARK  209  A    between atoms: _495  and  _496
REMARK  210  A    between atoms: _501  and  _503
REMARK  211  A    between atoms: _503  and  _504
REMARK  212  A    between atoms: _503  and  _506
REMARK  213  A    between atoms: _506  and  _507
REMARK  214  A    between atoms: _513  and  _515
REMARK  215  A    between atoms: _515  and  _516
REMARK  216  A    between atoms: _515  and  _518
REMARK  217  A    between atoms: _518  and  _519
REMARK  218  A    between atoms: _519  and  _520
REMARK  219  A    between atoms: _520  and  _521
REMARK  220  A    between atoms: _521  and  _522
REMARK  221  A    between atoms: _526  and  _528
REMARK  222  A    between atoms: _528  and  _529
REMARK  223  A    between atoms: _528  and  _531
REMARK  224  A    between atoms: _531  and  _532
REMARK  225  A    between atoms: _537  and  _539
REMARK  226  A    between atoms: _539  and  _540
REMARK  227  A    between atoms: _539  and  _542
REMARK  228  A    between atoms: _542  and  _543
REMARK  229  A    between atoms: _549  and  _551
REMARK  230  A    between atoms: _551  and  _552
REMARK  231  A    between atoms: _551  and  _554
REMARK  232  A    between atoms: _554  and  _555
REMARK  233  A    between atoms: _555  and  _556
REMARK  234  A    between atoms: _559  and  _561
REMARK  235  A    between atoms: _561  and  _562
REMARK  236  A    between atoms: _561  and  _564
REMARK  237  A    between atoms: _564  and  _565
REMARK  238  A    between atoms: _565  and  _566
REMARK  239  A    between atoms: _571  and  _573
REMARK  240  A    between atoms: _573  and  _574
REMARK  241  A    between atoms: _573  and  _576
REMARK  242  A    between atoms: _576  and  _577
REMARK  243  A    between atoms: _577  and  _578
REMARK  244  A    between atoms: _578  and  _579
REMARK  245  A    between atoms: _588  and  _590
REMARK  246  A    between atoms: _590  and  _591
REMARK                            x       y       z     vdW  Elec       q    Type
REMARK                         _______ _______ _______ _____ _____    ______ ____
ROOT
ATOM      1  O   HOH     1      12.858  38.323  45.664  0.00  0.00    +0.000 OA
ENDROOT
TORSDOF 0
REMARK  Name = ../refined-set-2016/2xpc/2xpc_pocket.pdb
REMARK  246 active torsions:
REMARK  status: ('A' for Active; 'I' for Inactive)
REMARK    1  A    between atoms: _1  and  _3
REMARK    2  A    between atoms: _3  and  _4
REMARK    3  A    between atoms: _3  and  _6
REMARK    4  A    between atoms: _6  and  _7
REMARK    5  A    between atoms: _10  and  _12
REMARK    6  A    between atoms: _12  and  _13
REMARK    7  A    between atoms: _12  and  _15
REMARK    8  A    between atoms: _15  and  _16
REMARK    9  A    between atoms: _19  and  _21
REMARK   10  A    between atoms: _21  and  _22
REMARK   11  A    between atoms: _24  and  _26
REMARK   12  A    between atoms: _26  and  _27
REMARK   13  A    between atoms: _26  and  _29
REMARK   14  A    between atoms: _29  and  _30
REMARK   15  A    between atoms: _33  and  _35
REMARK   16  A    between atoms: _35  and  _36
REMARK   17  A    between atoms: _38  and  _40
REMARK   18  A    between atoms: _40  and  _41
REMARK   19  A    between atoms: _40  and  _43
REMARK   20  A    between atoms: _43  and  _44
REMARK   21  A    between atoms: _47  and  _49
REMARK   22  A    between atoms: _49  and  _50
REMARK   23  A    between atoms: _49  and  _52
REMARK   24  A    between atoms: _52  and  _53
REMARK   25  A    between atoms: _56  and  _58
REMARK   26  A    between atoms: _58  and  _59
REMARK   27  A    between atoms: _61  and  _63
REMARK   28  A    between atoms: _63  and  _64
REMARK   29  A    between atoms: _63  and  _66
REMARK   30  A    between atoms: _66  and  _67
REMARK   31  A    between atoms: _67  and  _68
REMARK   32  A    between atoms: _70  and  _72
REMARK   33  A    between atoms: _72  and  _73
REMARK   34  A    between atoms: _72  and  _75
REMARK   35  A    between atoms: _75  and  _76
REMARK   36  A    between atoms: _79  and  _81
REMARK   37  A    between atoms: _81  and  _82
REMARK   38  A    between atoms: _81  and  _84
REMARK   39  A    between atoms: _84  and  _85
REMARK   40  A    between atoms: _88  and  _90
REMARK   41  A    between atoms: _90  and  _91
REMARK   42  A    between atoms: _90  and  _93
REMARK   43  A    between atoms: _93  and  _94
REMARK   44  A    between atoms: _94  and  _95
REMARK   45  A    between atoms: _95  and  _96
REMARK   46  A    between atoms: _106  and  _107
REMARK   47  A    between atoms: _113  and  _114
REMARK   48  A    between atoms: _119  and  _121
REMARK   49  A    between atoms: _121  and  _122
REMARK   50  A    between atoms: _121  and  _124
REMARK   51  A    between atoms: _124  and  _125
REMARK   52  A    between atoms: _130  and  _132
REMARK   53  A    between atoms: _132  and  _133
REMARK   54  A    between atoms: _135  and  _137
REMARK   55  A    between atoms: _137  and  _138
REMARK   56  A    between atoms: _137  and  _140
REMARK   57  A    between atoms: _140  and  _141
REMARK   58  A    between atoms: _143  and  _145
REMARK   59  A    between atoms: _145  and  _146
REMARK   60  A    between atoms: _145  and  _148
REMARK   61  A    between atoms: _148  and  _149
REMARK   62  A    between atoms: _152  and  _154
REMARK   63  A    between atoms: _154  and  _155
REMARK   64  A    between atoms: _154  and  _157
REMARK   65  A    between atoms: _157  and  _158
REMARK   66  A    between atoms: _163  and  _165
REMARK   67  A    between atoms: _165  and  _166
REMARK   68  A    between atoms: _169  and  _171
REMARK   69  A    between atoms: _171  and  _172
REMARK   70  A    between atoms: _171  and  _174
REMARK   71  A    between atoms: _174  and  _175
REMARK   72  A    between atoms: _178  and  _179
REMARK   73  A    between atoms: _184  and  _186
REMARK   74  A    between atoms: _186  and  _187
REMARK   75  A    between atoms: _189  and  _191
REMARK   76  A    between atoms: _191  and  _192
REMARK   77  A    between atoms: _191  and  _194
REMARK   78  A    between atoms: _194  and  _195
REMARK   79  A    between atoms: _198  and  _200
REMARK   80  A    between atoms: _200  and  _201
REMARK   81  A    between atoms: _204  and  _206
REMARK   82  A    between atoms: _206  and  _207
REMARK   83  A    between atoms: _206  and  _209
REMARK   84  A    between atoms: _209  and  _210
REMARK   85  A    between atoms: _215  and  _217
REMARK   86  A    between atoms: _217  and  _218
REMARK   87  A    between atoms: _217  and  _220
REMARK   88  A    between atoms: _220  and  _221
REMARK   89  A    between atoms: _223  and  _225
REMARK   90  A    between atoms: _225  and  _226
REMARK   91  A    between atoms: _225  and  _228
REMARK   92  A    between atoms: _228  and  _229
REMARK   93  A    between atoms: _229  and  _230
REMARK   94  A    between atoms: _230  and  _231
REMARK   95  A    between atoms: _231  and  _232
REMARK   96  A    between atoms: _236  and  _238
REMARK   97  A    between atoms: _238  and  _239
REMARK   98  A    between atoms: _238  and  _241
REMARK   99  A    between atoms: _241  and  _242
REMARK  100  A    between atoms: _247  and  _249
REMARK  101  A    between atoms: _249  and  _250
REMARK  102  A    between atoms: _249  and  _252
REMARK  103  A    between atoms: _252  and  _253
REMARK  104  A    between atoms: _255  and  _257
REMARK  105  A    between atoms: _257  and  _258
REMARK  106  A    between atoms: _257  and  _260
REMARK  107  A    between atoms: _260  and  _261
REMARK  108  A    between atoms: _263  and  _265
REMARK  109  A    between atoms: _265  and  _266
REMARK  110  A    between atoms: _265  and  _268
REMARK  111  A    between atoms: _268  and  _269
REMARK  112  A    between atoms: _275  and  _277
REMARK  113  A    between atoms: _277  and  _278
REMARK  114  A    between atoms: _277  and  _280
REMARK  115  A    between atoms: _280  and  _281
REMARK  116  A    between atoms: _281  and  _282
REMARK  117  A    between atoms: _287  and  _289
REMARK  118  A    between atoms: _289  and  _290
REMARK  119  A    between atoms: _289  and  _292
REMARK  120  A    between atoms: _292  and  _293
REMARK  121  A    between atoms: _296  and  _298
REMARK  122  A    between atoms: _298  and  _299
REMARK  123  A    between atoms: _298  and  _301
REMARK  124  A    between atoms: _301  and  _302
REMARK  125  A    between atoms: _307  and  _309
REMARK  126  A    between atoms: _309  and  _310
REMARK  127  A    between atoms: _309  and  _312
REMARK  128  A    between atoms: _312  and  _313
REMARK  129  A    between atoms: _313  and  _314
REMARK  130  A    between atoms: _316  and  _318
REMARK  131  A    between atoms: _318  and  _319
REMARK  132  A    between atoms: _318  and  _321
REMARK  133  A    between atoms: _321  and  _322
REMARK  134  A    between atoms: _325  and  _327
REMARK  135  A    between atoms: _327  and  _328
REMARK  136  A    between atoms: _327  and  _330
REMARK  137  A    between atoms: _330  and  _331
REMARK  138  A    between atoms: _331  and  _332
REMARK  139  A    between atoms: _332  and  _333
REMARK  140  A    between atoms: _342  and  _344
REMARK  141  A    between atoms: _344  and  _345
REMARK  142  A    between atoms: _344  and  _347
REMARK  143  A    between atoms: _347  and  _348
REMARK  144  A    between atoms: _353  and  _354
REMARK  145  A    between atoms: _356  and  _358
REMARK  146  A    between atoms: _358  and  _359
REMARK  147  A    between atoms: _358  and  _365
REMARK  148  A    between atoms: _359  and  _360
REMARK  149  A    between atoms: _360  and  _361
REMARK  150  A    between atoms: _361  and  _362
REMARK  151  A    between atoms: _362  and  _363
REMARK  152  A    between atoms: _370  and  _372
REMARK  153  A    between atoms: _372  and  _373
REMARK  154  A    between atoms: _372  and  _375
REMARK  155  A    between atoms: _375  and  _376
REMARK  156  A    between atoms: _378  and  _380
REMARK  157  A    between atoms: _380  and  _381
REMARK  158  A    between atoms: _380  and  _383
REMARK  159  A    between atoms: _383  and  _384
REMARK  160  A    between atoms: _384  and  _385
REMARK  161  A    between atoms: _385  and  _386
REMARK  162  A    between atoms: _386  and  _387
REMARK  163  A    between atoms: _391  and  _393
REMARK  164  A    between atoms: _393  and  _394
REMARK  165  A    between atoms: _397  and  _399
REMARK  166  A    between atoms: _399  and  _400
REMARK  167  A    between atoms: _399  and  _402
REMARK  168  A    between atoms: _402  and  _403
REMARK  169  A    between atoms: _406  and  _408
REMARK  170  A    between atoms: _408  and  _409
REMARK  171  A    between atoms: _408  and  _411
REMARK  172  A    between atoms: _411  and  _412
REMARK  173  A    between atoms: _417  and  _419
REMARK  174  A    between atoms: _419  and  _420
REMARK  175  A    between atoms: _419  and  _422
REMARK  176  A    between atoms: _422  and  _423
REMARK  177  A    between atoms: _426  and  _428
REMARK  178  A    between atoms: _428  and  _429
REMARK  179  A    between atoms: _431  and  _433
REMARK  180  A    between atoms: _433  and  _434
REMARK  181  A    between atoms: _433  and  _436
REMARK  182  A    between atoms: _436  and  _437
REMARK  183  A    between atoms: _437  and  _438
REMARK  184  A    between atoms: _438  and  _439
REMARK  185  A    between atoms: _439  and  _440
REMARK  186  A    between atoms: _444  and  _446
REMARK  187  A    between atoms: _446  and  _447
REMARK  188  A    between atoms: _450  and  _452
REMARK  189  A    between atoms: _452  and  _453
REMARK  190  A    between atoms: _452  and  _455
REMARK  191  A    between atoms: _457  and  _459
REMARK  192  A    between atoms: _459  and  _460
REMARK  193  A    between atoms: _463  and  _465
REMARK  194  A    between atoms: _465  and  _466
REMARK  195  A    between atoms: _465  and  _468
REMARK  196  A    between atoms: _468  and  _469
REMARK  197  A    between atoms: _471  and  _473
REMARK  198  A    between atoms: _473  and  _474
REMARK  199  A    between atoms: _473  and  _476
REMARK  200  A    between atoms: _476  and  _477
REMARK  201  A    between atoms: _480  and  _482
REMARK  202  A    between atoms: _482  and  _483
REMARK  203  A    between atoms: _482  and  _485
REMARK  204  A    between atoms: _485  and  _486
REMARK  205  A    between atoms: _489  and  _491
REMARK  206  A    between atoms: _491  and  _492
REMARK  207  A    between atoms: _491  and  _494
REMARK  208  A    between atoms: _494  and  _495
REMARK  209  A    between atoms: _495  and  _496
REMARK  210  A    between atoms: _501  and  _503
REMARK  211  A    between atoms: _503  and  _504
REMARK  212  A    between atoms: _503  and  _506
REMARK  213  A    between atoms: _506  and  _507
REMARK  214  A    between atoms: _513  and  _515
REMARK  215  A    between atoms: _515  and  _516
REMARK  216  A    between atoms: _515  and  _518
REMARK  217  A    between atoms: _518  and  _519
REMARK  218  A    between atoms: _519  and  _520
REMARK  219  A    between atoms: _520  and  _521
REMARK  220  A    between atoms: _521  and  _522
REMARK  221  A    between atoms: _526  and  _528
REMARK  222  A    between atoms: _528  and  _529
REMARK  223  A    between atoms: _528  and  _531
REMARK  224  A    between atoms: _531  and  _532
REMARK  225  A    between atoms: _537  and  _539
REMARK  226  A    between atoms: _539  and  _540
REMARK  227  A    between atoms: _539  and  _542
REMARK  228  A    between atoms: _542  and  _543
REMARK  229  A    between atoms: _549  and  _551
REMARK  230  A    between atoms: _551  and  _552
REMARK  231  A    between atoms: _551  and  _554
REMARK  232  A    between atoms: _554  and  _555
REMARK  233  A    between atoms: _555  and  _556
REMARK  234  A    between atoms: _559  and  _561
REMARK  235  A    between atoms: _561  and  _562
REMARK  236  A    between atoms: _561  and  _564
REMARK  237  A    between atoms: _564  and  _565
REMARK  238  A    between atoms: _565  and  _566
REMARK  239  A    between atoms: _571  and  _573
REMARK  240  A    between atoms: _573  and  _574
REMARK  241  A    between atoms: _573  and  _576
REMARK  242  A    between atoms: _576  and  _577
REMARK  243  A    between atoms: _577  and  _578
REMARK  244  A    between atoms: _578  and  _579
REMARK  245  A    between atoms: _588  and  _590
REMARK  246  A    between atoms: _590  and  _591
REMARK                            x       y       z     vdW  Elec       q    Type
REMARK                         _______ _______ _______ _____ _____    ______ ____
ROOT
ATOM      1  O   HOH     1      11.654  35.432  48.633  0.00  0.00    +0.000 OA
ENDROOT
TORSDOF 0
REMARK  Name = ../refined-set-2016/2xpc/2xpc_pocket.pdb
REMARK  246 active torsions:
REMARK  status: ('A' for Active; 'I' for Inactive)
REMARK    1  A    between atoms: _1  and  _3
REMARK    2  A    between atoms: _3  and  _4
REMARK    3  A    between atoms: _3  and  _6
REMARK    4  A    between atoms: _6  and  _7
REMARK    5  A    between atoms: _10  and  _12
REMARK    6  A    between atoms: _12  and  _13
REMARK    7  A    between atoms: _12  and  _15
REMARK    8  A    between atoms: _15  and  _16
REMARK    9  A    between atoms: _19  and  _21
REMARK   10  A    between atoms: _21  and  _22
REMARK   11  A    between atoms: _24  and  _26
REMARK   12  A    between atoms: _26  and  _27
REMARK   13  A    between atoms: _26  and  _29
REMARK   14  A    between atoms: _29  and  _30
REMARK   15  A    between atoms: _33  and  _35
REMARK   16  A    between atoms: _35  and  _36
REMARK   17  A    between atoms: _38  and  _40
REMARK   18  A    between atoms: _40  and  _41
REMARK   19  A    between atoms: _40  and  _43
REMARK   20  A    between atoms: _43  and  _44
REMARK   21  A    between atoms: _47  and  _49
REMARK   22  A    between atoms: _49  and  _50
REMARK   23  A    between atoms: _49  and  _52
REMARK   24  A    between atoms: _52  and  _53
REMARK   25  A    between atoms: _56  and  _58
REMARK   26  A    between atoms: _58  and  _59
REMARK   27  A    between atoms: _61  and  _63
REMARK   28  A    between atoms: _63  and  _64
REMARK   29  A    between atoms: _63  and  _66
REMARK   30  A    between atoms: _66  and  _67
REMARK   31  A    between atoms: _67  and  _68
REMARK   32  A    between atoms: _70  and  _72
REMARK   33  A    between atoms: _72  and  _73
REMARK   34  A    between atoms: _72  and  _75
REMARK   35  A    between atoms: _75  and  _76
REMARK   36  A    between atoms: _79  and  _81
REMARK   37  A    between atoms: _81  and  _82
REMARK   38  A    between atoms: _81  and  _84
REMARK   39  A    between atoms: _84  and  _85
REMARK   40  A    between atoms: _88  and  _90
REMARK   41  A    between atoms: _90  and  _91
REMARK   42  A    between atoms: _90  and  _93
REMARK   43  A    between atoms: _93  and  _94
REMARK   44  A    between atoms: _94  and  _95
REMARK   45  A    between atoms: _95  and  _96
REMARK   46  A    between atoms: _106  and  _107
REMARK   47  A    between atoms: _113  and  _114
REMARK   48  A    between atoms: _119  and  _121
REMARK   49  A    between atoms: _121  and  _122
REMARK   50  A    between atoms: _121  and  _124
REMARK   51  A    between atoms: _124  and  _125
REMARK   52  A    between atoms: _130  and  _132
REMARK   53  A    between atoms: _132  and  _133
REMARK   54  A    between atoms: _135  and  _137
REMARK   55  A    between atoms: _137  and  _138
REMARK   56  A    between atoms: _137  and  _140
REMARK   57  A    between atoms: _140  and  _141
REMARK   58  A    between atoms: _143  and  _145
REMARK   59  A    between atoms: _145  and  _146
REMARK   60  A    between atoms: _145  and  _148
REMARK   61  A    between atoms: _148  and  _149
REMARK   62  A    between atoms: _152  and  _154
REMARK   63  A    between atoms: _154  and  _155
REMARK   64  A    between atoms: _154  and  _157
REMARK   65  A    between atoms: _157  and  _158
REMARK   66  A    between atoms: _163  and  _165
REMARK   67  A    between atoms: _165  and  _166
REMARK   68  A    between atoms: _169  and  _171
REMARK   69  A    between atoms: _171  and  _172
REMARK   70  A    between atoms: _171  and  _174
REMARK   71  A    between atoms: _174  and  _175
REMARK   72  A    between atoms: _178  and  _179
REMARK   73  A    between atoms: _184  and  _186
REMARK   74  A    between atoms: _186  and  _187
REMARK   75  A    between atoms: _189  and  _191
REMARK   76  A    between atoms: _191  and  _192
REMARK   77  A    between atoms: _191  and  _194
REMARK   78  A    between atoms: _194  and  _195
REMARK   79  A    between atoms: _198  and  _200
REMARK   80  A    between atoms: _200  and  _201
REMARK   81  A    between atoms: _204  and  _206
REMARK   82  A    between atoms: _206  and  _207
REMARK   83  A    between atoms: _206  and  _209
REMARK   84  A    between atoms: _209  and  _210
REMARK   85  A    between atoms: _215  and  _217
REMARK   86  A    between atoms: _217  and  _218
REMARK   87  A    between atoms: _217  and  _220
REMARK   88  A    between atoms: _220  and  _221
REMARK   89  A    between atoms: _223  and  _225
REMARK   90  A    between atoms: _225  and  _226
REMARK   91  A    between atoms: _225  and  _228
REMARK   92  A    between atoms: _228  and  _229
REMARK   93  A    between atoms: _229  and  _230
REMARK   94  A    between atoms: _230  and  _231
REMARK   95  A    between atoms: _231  and  _232
REMARK   96  A    between atoms: _236  and  _238
REMARK   97  A    between atoms: _238  and  _239
REMARK   98  A    between atoms: _238  and  _241
REMARK   99  A    between atoms: _241  and  _242
REMARK  100  A    between atoms: _247  and  _249
REMARK  101  A    between atoms: _249  and  _250
REMARK  102  A    between atoms: _249  and  _252
REMARK  103  A    between atoms: _252  and  _253
REMARK  104  A    between atoms: _255  and  _257
REMARK  105  A    between atoms: _257  and  _258
REMARK  106  A    between atoms: _257  and  _260
REMARK  107  A    between atoms: _260  and  _261
REMARK  108  A    between atoms: _263  and  _265
REMARK  109  A    between atoms: _265  and  _266
REMARK  110  A    between atoms: _265  and  _268
REMARK  111  A    between atoms: _268  and  _269
REMARK  112  A    between atoms: _275  and  _277
REMARK  113  A    between atoms: _277  and  _278
REMARK  114  A    between atoms: _277  and  _280
REMARK  115  A    between atoms: _280  and  _281
REMARK  116  A    between atoms: _281  and  _282
REMARK  117  A    between atoms: _287  and  _289
REMARK  118  A    between atoms: _289  and  _290
REMARK  119  A    between atoms: _289  and  _292
REMARK  120  A    between atoms: _292  and  _293
REMARK  121  A    between atoms: _296  and  _298
REMARK  122  A    between atoms: _298  and  _299
REMARK  123  A    between atoms: _298  and  _301
REMARK  124  A    between atoms: _301  and  _302
REMARK  125  A    between atoms: _307  and  _309
REMARK  126  A    between atoms: _309  and  _310
REMARK  127  A    between atoms: _309  and  _312
REMARK  128  A    between atoms: _312  and  _313
REMARK  129  A    between atoms: _313  and  _314
REMARK  130  A    between atoms: _316  and  _318
REMARK  131  A    between atoms: _318  and  _319
REMARK  132  A    between atoms: _318  and  _321
REMARK  133  A    between atoms: _321  and  _322
REMARK  134  A    between atoms: _325  and  _327
REMARK  135  A    between atoms: _327  and  _328
REMARK  136  A    between atoms: _327  and  _330
REMARK  137  A    between atoms: _330  and  _331
REMARK  138  A    between atoms: _331  and  _332
REMARK  139  A    between atoms: _332  and  _333
REMARK  140  A    between atoms: _342  and  _344
REMARK  141  A    between atoms: _344  and  _345
REMARK  142  A    between atoms: _344  and  _347
REMARK  143  A    between atoms: _347  and  _348
REMARK  144  A    between atoms: _353  and  _354
REMARK  145  A    between atoms: _356  and  _358
REMARK  146  A    between atoms: _358  and  _359
REMARK  147  A    between atoms: _358  and  _365
REMARK  148  A    between atoms: _359  and  _360
REMARK  149  A    between atoms: _360  and  _361
REMARK  150  A    between atoms: _361  and  _362
REMARK  151  A    between atoms: _362  and  _363
REMARK  152  A    between atoms: _370  and  _372
REMARK  153  A    between atoms: _372  and  _373
REMARK  154  A    between atoms: _372  and  _375
REMARK  155  A    between atoms: _375  and  _376
REMARK  156  A    between atoms: _378  and  _380
REMARK  157  A    between atoms: _380  and  _381
REMARK  158  A    between atoms: _380  and  _383
REMARK  159  A    between atoms: _383  and  _384
REMARK  160  A    between atoms: _384  and  _385
REMARK  161  A    between atoms: _385  and  _386
REMARK  162  A    between atoms: _386  and  _387
REMARK  163  A    between atoms: _391  and  _393
REMARK  164  A    between atoms: _393  and  _394
REMARK  165  A    between atoms: _397  and  _399
REMARK  166  A    between atoms: _399  and  _400
REMARK  167  A    between atoms: _399  and  _402
REMARK  168  A    between atoms: _402  and  _403
REMARK  169  A    between atoms: _406  and  _408
REMARK  170  A    between atoms: _408  and  _409
REMARK  171  A    between atoms: _408  and  _411
REMARK  172  A    between atoms: _411  and  _412
REMARK  173  A    between atoms: _417  and  _419
REMARK  174  A    between atoms: _419  and  _420
REMARK  175  A    between atoms: _419  and  _422
REMARK  176  A    between atoms: _422  and  _423
REMARK  177  A    between atoms: _426  and  _428
REMARK  178  A    between atoms: _428  and  _429
REMARK  179  A    between atoms: _431  and  _433
REMARK  180  A    between atoms: _433  and  _434
REMARK  181  A    between atoms: _433  and  _436
REMARK  182  A    between atoms: _436  and  _437
REMARK  183  A    between atoms: _437  and  _438
REMARK  184  A    between atoms: _438  and  _439
REMARK  185  A    between atoms: _439  and  _440
REMARK  186  A    between atoms: _444  and  _446
REMARK  187  A    between atoms: _446  and  _447
REMARK  188  A    between atoms: _450  and  _452
REMARK  189  A    between atoms: _452  and  _453
REMARK  190  A    between atoms: _452  and  _455
REMARK  191  A    between atoms: _457  and  _459
REMARK  192  A    between atoms: _459  and  _460
REMARK  193  A    between atoms: _463  and  _465
REMARK  194  A    between atoms: _465  and  _466
REMARK  195  A    between atoms: _465  and  _468
REMARK  196  A    between atoms: _468  and  _469
REMARK  197  A    between atoms: _471  and  _473
REMARK  198  A    between atoms: _473  and  _474
REMARK  199  A    between atoms: _473  and  _476
REMARK  200  A    between atoms: _476  and  _477
REMARK  201  A    between atoms: _480  and  _482
REMARK  202  A    between atoms: _482  and  _483
REMARK  203  A    between atoms: _482  and  _485
REMARK  204  A    between atoms: _485  and  _486
REMARK  205  A    between atoms: _489  and  _491
REMARK  206  A    between atoms: _491  and  _492
REMARK  207  A    between atoms: _491  and  _494
REMARK  208  A    between atoms: _494  and  _495
REMARK  209  A    between atoms: _495  and  _496
REMARK  210  A    between atoms: _501  and  _503
REMARK  211  A    between atoms: _503  and  _504
REMARK  212  A    between atoms: _503  and  _506
REMARK  213  A    between atoms: _506  and  _507
REMARK  214  A    between atoms: _513  and  _515
REMARK  215  A    between atoms: _515  and  _516
REMARK  216  A    between atoms: _515  and  _518
REMARK  217  A    between atoms: _518  and  _519
REMARK  218  A    between atoms: _519  and  _520
REMARK  219  A    between atoms: _520  and  _521
REMARK  220  A    between atoms: _521  and  _522
REMARK  221  A    between atoms: _526  and  _528
REMARK  222  A    between atoms: _528  and  _529
REMARK  223  A    between atoms: _528  and  _531
REMARK  224  A    between atoms: _531  and  _532
REMARK  225  A    between atoms: _537  and  _539
REMARK  226  A    between atoms: _539  and  _540
REMARK  227  A    between atoms: _539  and  _542
REMARK  228  A    between atoms: _542  and  _543
REMARK  229  A    between atoms: _549  and  _551
REMARK  230  A    between atoms: _551  and  _552
REMARK  231  A    between atoms: _551  and  _554
REMARK  232  A    between atoms: _554  and  _555
REMARK  233  A    between atoms: _555  and  _556
REMARK  234  A    between atoms: _559  and  _561
REMARK  235  A    between atoms: _561  and  _562
REMARK  236  A    between atoms: _561  and  _564
REMARK  237  A    between atoms: _564  and  _565
REMARK  238  A    between atoms: _565  and  _566
REMARK  239  A    between atoms: _571  and  _573
REMARK  240  A    between atoms: _573  and  _574
REMARK  241  A    between atoms: _573  and  _576
REMARK  242  A    between atoms: _576  and  _577
REMARK  243  A    between atoms: _577  and  _578
REMARK  244  A    between atoms: _578  and  _579
REMARK  245  A    between atoms: _588  and  _590
REMARK  246  A    between atoms: _590  and  _591
REMARK                            x       y       z     vdW  Elec       q    Type
REMARK                         _______ _______ _______ _____ _____    ______ ____
ROOT
ATOM      1  O   HOH     1      26.470  33.974  40.608  0.00  0.00    +0.000 OA
ENDROOT
TORSDOF 0
REMARK  Name = ../refined-set-2016/2xpc/2xpc_pocket.pdb
REMARK  246 active torsions:
REMARK  status: ('A' for Active; 'I' for Inactive)
REMARK    1  A    between atoms: _1  and  _3
REMARK    2  A    between atoms: _3  and  _4
REMARK    3  A    between atoms: _3  and  _6
REMARK    4  A    between atoms: _6  and  _7
REMARK    5  A    between atoms: _10  and  _12
REMARK    6  A    between atoms: _12  and  _13
REMARK    7  A    between atoms: _12  and  _15
REMARK    8  A    between atoms: _15  and  _16
REMARK    9  A    between atoms: _19  and  _21
REMARK   10  A    between atoms: _21  and  _22
REMARK   11  A    between atoms: _24  and  _26
REMARK   12  A    between atoms: _26  and  _27
REMARK   13  A    between atoms: _26  and  _29
REMARK   14  A    between atoms: _29  and  _30
REMARK   15  A    between atoms: _33  and  _35
REMARK   16  A    between atoms: _35  and  _36
REMARK   17  A    between atoms: _38  and  _40
REMARK   18  A    between atoms: _40  and  _41
REMARK   19  A    between atoms: _40  and  _43
REMARK   20  A    between atoms: _43  and  _44
REMARK   21  A    between atoms: _47  and  _49
REMARK   22  A    between atoms: _49  and  _50
REMARK   23  A    between atoms: _49  and  _52
REMARK   24  A    between atoms: _52  and  _53
REMARK   25  A    between atoms: _56  and  _58
REMARK   26  A    between atoms: _58  and  _59
REMARK   27  A    between atoms: _61  and  _63
REMARK   28  A    between atoms: _63  and  _64
REMARK   29  A    between atoms: _63  and  _66
REMARK   30  A    between atoms: _66  and  _67
REMARK   31  A    between atoms: _67  and  _68
REMARK   32  A    between atoms: _70  and  _72
REMARK   33  A    between atoms: _72  and  _73
REMARK   34  A    between atoms: _72  and  _75
REMARK   35  A    between atoms: _75  and  _76
REMARK   36  A    between atoms: _79  and  _81
REMARK   37  A    between atoms: _81  and  _82
REMARK   38  A    between atoms: _81  and  _84
REMARK   39  A    between atoms: _84  and  _85
REMARK   40  A    between atoms: _88  and  _90
REMARK   41  A    between atoms: _90  and  _91
REMARK   42  A    between atoms: _90  and  _93
REMARK   43  A    between atoms: _93  and  _94
REMARK   44  A    between atoms: _94  and  _95
REMARK   45  A    between atoms: _95  and  _96
REMARK   46  A    between atoms: _106  and  _107
REMARK   47  A    between atoms: _113  and  _114
REMARK   48  A    between atoms: _119  and  _121
REMARK   49  A    between atoms: _121  and  _122
REMARK   50  A    between atoms: _121  and  _124
REMARK   51  A    between atoms: _124  and  _125
REMARK   52  A    between atoms: _130  and  _132
REMARK   53  A    between atoms: _132  and  _133
REMARK   54  A    between atoms: _135  and  _137
REMARK   55  A    between atoms: _137  and  _138
REMARK   56  A    between atoms: _137  and  _140
REMARK   57  A    between atoms: _140  and  _141
REMARK   58  A    between atoms: _143  and  _145
REMARK   59  A    between atoms: _145  and  _146
REMARK   60  A    between atoms: _145  and  _148
REMARK   61  A    between atoms: _148  and  _149
REMARK   62  A    between atoms: _152  and  _154
REMARK   63  A    between atoms: _154  and  _155
REMARK   64  A    between atoms: _154  and  _157
REMARK   65  A    between atoms: _157  and  _158
REMARK   66  A    between atoms: _163  and  _165
REMARK   67  A    between atoms: _165  and  _166
REMARK   68  A    between atoms: _169  and  _171
REMARK   69  A    between atoms: _171  and  _172
REMARK   70  A    between atoms: _171  and  _174
REMARK   71  A    between atoms: _174  and  _175
REMARK   72  A    between atoms: _178  and  _179
REMARK   73  A    between atoms: _184  and  _186
REMARK   74  A    between atoms: _186  and  _187
REMARK   75  A    between atoms: _189  and  _191
REMARK   76  A    between atoms: _191  and  _192
REMARK   77  A    between atoms: _191  and  _194
REMARK   78  A    between atoms: _194  and  _195
REMARK   79  A    between atoms: _198  and  _200
REMARK   80  A    between atoms: _200  and  _201
REMARK   81  A    between atoms: _204  and  _206
REMARK   82  A    between atoms: _206  and  _207
REMARK   83  A    between atoms: _206  and  _209
REMARK   84  A    between atoms: _209  and  _210
REMARK   85  A    between atoms: _215  and  _217
REMARK   86  A    between atoms: _217  and  _218
REMARK   87  A    between atoms: _217  and  _220
REMARK   88  A    between atoms: _220  and  _221
REMARK   89  A    between atoms: _223  and  _225
REMARK   90  A    between atoms: _225  and  _226
REMARK   91  A    between atoms: _225  and  _228
REMARK   92  A    between atoms: _228  and  _229
REMARK   93  A    between atoms: _229  and  _230
REMARK   94  A    between atoms: _230  and  _231
REMARK   95  A    between atoms: _231  and  _232
REMARK   96  A    between atoms: _236  and  _238
REMARK   97  A    between atoms: _238  and  _239
REMARK   98  A    between atoms: _238  and  _241
REMARK   99  A    between atoms: _241  and  _242
REMARK  100  A    between atoms: _247  and  _249
REMARK  101  A    between atoms: _249  and  _250
REMARK  102  A    between atoms: _249  and  _252
REMARK  103  A    between atoms: _252  and  _253
REMARK  104  A    between atoms: _255  and  _257
REMARK  105  A    between atoms: _257  and  _258
REMARK  106  A    between atoms: _257  and  _260
REMARK  107  A    between atoms: _260  and  _261
REMARK  108  A    between atoms: _263  and  _265
REMARK  109  A    between atoms: _265  and  _266
REMARK  110  A    between atoms: _265  and  _268
REMARK  111  A    between atoms: _268  and  _269
REMARK  112  A    between atoms: _275  and  _277
REMARK  113  A    between atoms: _277  and  _278
REMARK  114  A    between atoms: _277  and  _280
REMARK  115  A    between atoms: _280  and  _281
REMARK  116  A    between atoms: _281  and  _282
REMARK  117  A    between atoms: _287  and  _289
REMARK  118  A    between atoms: _289  and  _290
REMARK  119  A    between atoms: _289  and  _292
REMARK  120  A    between atoms: _292  and  _293
REMARK  121  A    between atoms: _296  and  _298
REMARK  122  A    between atoms: _298  and  _299
REMARK  123  A    between atoms: _298  and  _301
REMARK  124  A    between atoms: _301  and  _302
REMARK  125  A    between atoms: _307  and  _309
REMARK  126  A    between atoms: _309  and  _310
REMARK  127  A    between atoms: _309  and  _312
REMARK  128  A    between atoms: _312  and  _313
REMARK  129  A    between atoms: _313  and  _314
REMARK  130  A    between atoms: _316  and  _318
REMARK  131  A    between atoms: _318  and  _319
REMARK  132  A    between atoms: _318  and  _321
REMARK  133  A    between atoms: _321  and  _322
REMARK  134  A    between atoms: _325  and  _327
REMARK  135  A    between atoms: _327  and  _328
REMARK  136  A    between atoms: _327  and  _330
REMARK  137  A    between atoms: _330  and  _331
REMARK  138  A    between atoms: _331  and  _332
REMARK  139  A    between atoms: _332  and  _333
REMARK  140  A    between atoms: _342  and  _344
REMARK  141  A    between atoms: _344  and  _345
REMARK  142  A    between atoms: _344  and  _347
REMARK  143  A    between atoms: _347  and  _348
REMARK  144  A    between atoms: _353  and  _354
REMARK  145  A    between atoms: _356  and  _358
REMARK  146  A    between atoms: _358  and  _359
REMARK  147  A    between atoms: _358  and  _365
REMARK  148  A    between atoms: _359  and  _360
REMARK  149  A    between atoms: _360  and  _361
REMARK  150  A    between atoms: _361  and  _362
REMARK  151  A    between atoms: _362  and  _363
REMARK  152  A    between atoms: _370  and  _372
REMARK  153  A    between atoms: _372  and  _373
REMARK  154  A    between atoms: _372  and  _375
REMARK  155  A    between atoms: _375  and  _376
REMARK  156  A    between atoms: _378  and  _380
REMARK  157  A    between atoms: _380  and  _381
REMARK  158  A    between atoms: _380  and  _383
REMARK  159  A    between atoms: _383  and  _384
REMARK  160  A    between atoms: _384  and  _385
REMARK  161  A    between atoms: _385  and  _386
REMARK  162  A    between atoms: _386  and  _387
REMARK  163  A    between atoms: _391  and  _393
REMARK  164  A    between atoms: _393  and  _394
REMARK  165  A    between atoms: _397  and  _399
REMARK  166  A    between atoms: _399  and  _400
REMARK  167  A    between atoms: _399  and  _402
REMARK  168  A    between atoms: _402  and  _403
REMARK  169  A    between atoms: _406  and  _408
REMARK  170  A    between atoms: _408  and  _409
REMARK  171  A    between atoms: _408  and  _411
REMARK  172  A    between atoms: _411  and  _412
REMARK  173  A    between atoms: _417  and  _419
REMARK  174  A    between atoms: _419  and  _420
REMARK  175  A    between atoms: _419  and  _422
REMARK  176  A    between atoms: _422  and  _423
REMARK  177  A    between atoms: _426  and  _428
REMARK  178  A    between atoms: _428  and  _429
REMARK  179  A    between atoms: _431  and  _433
REMARK  180  A    between atoms: _433  and  _434
REMARK  181  A    between atoms: _433  and  _436
REMARK  182  A    between atoms: _436  and  _437
REMARK  183  A    between atoms: _437  and  _438
REMARK  184  A    between atoms: _438  and  _439
REMARK  185  A    between atoms: _439  and  _440
REMARK  186  A    between atoms: _444  and  _446
REMARK  187  A    between atoms: _446  and  _447
REMARK  188  A    between atoms: _450  and  _452
REMARK  189  A    between atoms: _452  and  _453
REMARK  190  A    between atoms: _452  and  _455
REMARK  191  A    between atoms: _457  and  _459
REMARK  192  A    between atoms: _459  and  _460
REMARK  193  A    between atoms: _463  and  _465
REMARK  194  A    between atoms: _465  and  _466
REMARK  195  A    between atoms: _465  and  _468
REMARK  196  A    between atoms: _468  and  _469
REMARK  197  A    between atoms: _471  and  _473
REMARK  198  A    between atoms: _473  and  _474
REMARK  199  A    between atoms: _473  and  _476
REMARK  200  A    between atoms: _476  and  _477
REMARK  201  A    between atoms: _480  and  _482
REMARK  202  A    between atoms: _482  and  _483
REMARK  203  A    between atoms: _482  and  _485
REMARK  204  A    between atoms: _485  and  _486
REMARK  205  A    between atoms: _489  and  _491
REMARK  206  A    between atoms: _491  and  _492
REMARK  207  A    between atoms: _491  and  _494
REMARK  208  A    between atoms: _494  and  _495
REMARK  209  A    between atoms: _495  and  _496
REMARK  210  A    between atoms: _501  and  _503
REMARK  211  A    between atoms: _503  and  _504
REMARK  212  A    between atoms: _503  and  _506
REMARK  213  A    between atoms: _506  and  _507
REMARK  214  A    between atoms: _513  and  _515
REMARK  215  A    between atoms: _515  and  _516
REMARK  216  A    between atoms: _515  and  _518
REMARK  217  A    between atoms: _518  and  _519
REMARK  218  A    between atoms: _519  and  _520
REMARK  219  A    between atoms: _520  and  _521
REMARK  220  A    between atoms: _521  and  _522
REMARK  221  A    between atoms: _526  and  _528
REMARK  222  A    between atoms: _528  and  _529
REMARK  223  A    between atoms: _528  and  _531
REMARK  224  A    between atoms: _531  and  _532
REMARK  225  A    between atoms: _537  and  _539
REMARK  226  A    between atoms: _539  and  _540
REMARK  227  A    between atoms: _539  and  _542
REMARK  228  A    between atoms: _542  and  _543
REMARK  229  A    between atoms: _549  and  _551
REMARK  230  A    between atoms: _551  and  _552
REMARK  231  A    between atoms: _551  and  _554
REMARK  232  A    between atoms: _554  and  _555
REMARK  233  A    between atoms: _555  and  _556
REMARK  234  A    between atoms: _559  and  _561
REMARK  235  A    between atoms: _561  and  _562
REMARK  236  A    between atoms: _561  and  _564
REMARK  237  A    between atoms: _564  and  _565
REMARK  238  A    between atoms: _565  and  _566
REMARK  239  A    between atoms: _571  and  _573
REMARK  240  A    between atoms: _573  and  _574
REMARK  241  A    between atoms: _573  and  _576
REMARK  242  A    between atoms: _576  and  _577
REMARK  243  A    between atoms: _577  and  _578
REMARK  244  A    between atoms: _578  and  _579
REMARK  245  A    between atoms: _588  and  _590
REMARK  246  A    between atoms: _590  and  _591
REMARK                            x       y       z     vdW  Elec       q    Type
REMARK                         _______ _______ _______ _____ _____    ______ ____
ROOT
ATOM      1  O   HOH     1      17.033  33.697  53.864  0.00  0.00    +0.000 OA
ENDROOT
TORSDOF 0
REMARK  Name = ../refined-set-2016/2xpc/2xpc_pocket.pdb
REMARK  246 active torsions:
REMARK  status: ('A' for Active; 'I' for Inactive)
REMARK    1  A    between atoms: _1  and  _3
REMARK    2  A    between atoms: _3  and  _4
REMARK    3  A    between atoms: _3  and  _6
REMARK    4  A    between atoms: _6  and  _7
REMARK    5  A    between atoms: _10  and  _12
REMARK    6  A    between atoms: _12  and  _13
REMARK    7  A    between atoms: _12  and  _15
REMARK    8  A    between atoms: _15  and  _16
REMARK    9  A    between atoms: _19  and  _21
REMARK   10  A    between atoms: _21  and  _22
REMARK   11  A    between atoms: _24  and  _26
REMARK   12  A    between atoms: _26  and  _27
REMARK   13  A    between atoms: _26  and  _29
REMARK   14  A    between atoms: _29  and  _30
REMARK   15  A    between atoms: _33  and  _35
REMARK   16  A    between atoms: _35  and  _36
REMARK   17  A    between atoms: _38  and  _40
REMARK   18  A    between atoms: _40  and  _41
REMARK   19  A    between atoms: _40  and  _43
REMARK   20  A    between atoms: _43  and  _44
REMARK   21  A    between atoms: _47  and  _49
REMARK   22  A    between atoms: _49  and  _50
REMARK   23  A    between atoms: _49  and  _52
REMARK   24  A    between atoms: _52  and  _53
REMARK   25  A    between atoms: _56  and  _58
REMARK   26  A    between atoms: _58  and  _59
REMARK   27  A    between atoms: _61  and  _63
REMARK   28  A    between atoms: _63  and  _64
REMARK   29  A    between atoms: _63  and  _66
REMARK   30  A    between atoms: _66  and  _67
REMARK   31  A    between atoms: _67  and  _68
REMARK   32  A    between atoms: _70  and  _72
REMARK   33  A    between atoms: _72  and  _73
REMARK   34  A    between atoms: _72  and  _75
REMARK   35  A    between atoms: _75  and  _76
REMARK   36  A    between atoms: _79  and  _81
REMARK   37  A    between atoms: _81  and  _82
REMARK   38  A    between atoms: _81  and  _84
REMARK   39  A    between atoms: _84  and  _85
REMARK   40  A    between atoms: _88  and  _90
REMARK   41  A    between atoms: _90  and  _91
REMARK   42  A    between atoms: _90  and  _93
REMARK   43  A    between atoms: _93  and  _94
REMARK   44  A    between atoms: _94  and  _95
REMARK   45  A    between atoms: _95  and  _96
REMARK   46  A    between atoms: _106  and  _107
REMARK   47  A    between atoms: _113  and  _114
REMARK   48  A    between atoms: _119  and  _121
REMARK   49  A    between atoms: _121  and  _122
REMARK   50  A    between atoms: _121  and  _124
REMARK   51  A    between atoms: _124  and  _125
REMARK   52  A    between atoms: _130  and  _132
REMARK   53  A    between atoms: _132  and  _133
REMARK   54  A    between atoms: _135  and  _137
REMARK   55  A    between atoms: _137  and  _138
REMARK   56  A    between atoms: _137  and  _140
REMARK   57  A    between atoms: _140  and  _141
REMARK   58  A    between atoms: _143  and  _145
REMARK   59  A    between atoms: _145  and  _146
REMARK   60  A    between atoms: _145  and  _148
REMARK   61  A    between atoms: _148  and  _149
REMARK   62  A    between atoms: _152  and  _154
REMARK   63  A    between atoms: _154  and  _155
REMARK   64  A    between atoms: _154  and  _157
REMARK   65  A    between atoms: _157  and  _158
REMARK   66  A    between atoms: _163  and  _165
REMARK   67  A    between atoms: _165  and  _166
REMARK   68  A    between atoms: _169  and  _171
REMARK   69  A    between atoms: _171  and  _172
REMARK   70  A    between atoms: _171  and  _174
REMARK   71  A    between atoms: _174  and  _175
REMARK   72  A    between atoms: _178  and  _179
REMARK   73  A    between atoms: _184  and  _186
REMARK   74  A    between atoms: _186  and  _187
REMARK   75  A    between atoms: _189  and  _191
REMARK   76  A    between atoms: _191  and  _192
REMARK   77  A    between atoms: _191  and  _194
REMARK   78  A    between atoms: _194  and  _195
REMARK   79  A    between atoms: _198  and  _200
REMARK   80  A    between atoms: _200  and  _201
REMARK   81  A    between atoms: _204  and  _206
REMARK   82  A    between atoms: _206  and  _207
REMARK   83  A    between atoms: _206  and  _209
REMARK   84  A    between atoms: _209  and  _210
REMARK   85  A    between atoms: _215  and  _217
REMARK   86  A    between atoms: _217  and  _218
REMARK   87  A    between atoms: _217  and  _220
REMARK   88  A    between atoms: _220  and  _221
REMARK   89  A    between atoms: _223  and  _225
REMARK   90  A    between atoms: _225  and  _226
REMARK   91  A    between atoms: _225  and  _228
REMARK   92  A    between atoms: _228  and  _229
REMARK   93  A    between atoms: _229  and  _230
REMARK   94  A    between atoms: _230  and  _231
REMARK   95  A    between atoms: _231  and  _232
REMARK   96  A    between atoms: _236  and  _238
REMARK   97  A    between atoms: _238  and  _239
REMARK   98  A    between atoms: _238  and  _241
REMARK   99  A    between atoms: _241  and  _242
REMARK  100  A    between atoms: _247  and  _249
REMARK  101  A    between atoms: _249  and  _250
REMARK  102  A    between atoms: _249  and  _252
REMARK  103  A    between atoms: _252  and  _253
REMARK  104  A    between atoms: _255  and  _257
REMARK  105  A    between atoms: _257  and  _258
REMARK  106  A    between atoms: _257  and  _260
REMARK  107  A    between atoms: _260  and  _261
REMARK  108  A    between atoms: _263  and  _265
REMARK  109  A    between atoms: _265  and  _266
REMARK  110  A    between atoms: _265  and  _268
REMARK  111  A    between atoms: _268  and  _269
REMARK  112  A    between atoms: _275  and  _277
REMARK  113  A    between atoms: _277  and  _278
REMARK  114  A    between atoms: _277  and  _280
REMARK  115  A    between atoms: _280  and  _281
REMARK  116  A    between atoms: _281  and  _282
REMARK  117  A    between atoms: _287  and  _289
REMARK  118  A    between atoms: _289  and  _290
REMARK  119  A    between atoms: _289  and  _292
REMARK  120  A    between atoms: _292  and  _293
REMARK  121  A    between atoms: _296  and  _298
REMARK  122  A    between atoms: _298  and  _299
REMARK  123  A    between atoms: _298  and  _301
REMARK  124  A    between atoms: _301  and  _302
REMARK  125  A    between atoms: _307  and  _309
REMARK  126  A    between atoms: _309  and  _310
REMARK  127  A    between atoms: _309  and  _312
REMARK  128  A    between atoms: _312  and  _313
REMARK  129  A    between atoms: _313  and  _314
REMARK  130  A    between atoms: _316  and  _318
REMARK  131  A    between atoms: _318  and  _319
REMARK  132  A    between atoms: _318  and  _321
REMARK  133  A    between atoms: _321  and  _322
REMARK  134  A    between atoms: _325  and  _327
REMARK  135  A    between atoms: _327  and  _328
REMARK  136  A    between atoms: _327  and  _330
REMARK  137  A    between atoms: _330  and  _331
REMARK  138  A    between atoms: _331  and  _332
REMARK  139  A    between atoms: _332  and  _333
REMARK  140  A    between atoms: _342  and  _344
REMARK  141  A    between atoms: _344  and  _345
REMARK  142  A    between atoms: _344  and  _347
REMARK  143  A    between atoms: _347  and  _348
REMARK  144  A    between atoms: _353  and  _354
REMARK  145  A    between atoms: _356  and  _358
REMARK  146  A    between atoms: _358  and  _359
REMARK  147  A    between atoms: _358  and  _365
REMARK  148  A    between atoms: _359  and  _360
REMARK  149  A    between atoms: _360  and  _361
REMARK  150  A    between atoms: _361  and  _362
REMARK  151  A    between atoms: _362  and  _363
REMARK  152  A    between atoms: _370  and  _372
REMARK  153  A    between atoms: _372  and  _373
REMARK  154  A    between atoms: _372  and  _375
REMARK  155  A    between atoms: _375  and  _376
REMARK  156  A    between atoms: _378  and  _380
REMARK  157  A    between atoms: _380  and  _381
REMARK  158  A    between atoms: _380  and  _383
REMARK  159  A    between atoms: _383  and  _384
REMARK  160  A    between atoms: _384  and  _385
REMARK  161  A    between atoms: _385  and  _386
REMARK  162  A    between atoms: _386  and  _387
REMARK  163  A    between atoms: _391  and  _393
REMARK  164  A    between atoms: _393  and  _394
REMARK  165  A    between atoms: _397  and  _399
REMARK  166  A    between atoms: _399  and  _400
REMARK  167  A    between atoms: _399  and  _402
REMARK  168  A    between atoms: _402  and  _403
REMARK  169  A    between atoms: _406  and  _408
REMARK  170  A    between atoms: _408  and  _409
REMARK  171  A    between atoms: _408  and  _411
REMARK  172  A    between atoms: _411  and  _412
REMARK  173  A    between atoms: _417  and  _419
REMARK  174  A    between atoms: _419  and  _420
REMARK  175  A    between atoms: _419  and  _422
REMARK  176  A    between atoms: _422  and  _423
REMARK  177  A    between atoms: _426  and  _428
REMARK  178  A    between atoms: _428  and  _429
REMARK  179  A    between atoms: _431  and  _433
REMARK  180  A    between atoms: _433  and  _434
REMARK  181  A    between atoms: _433  and  _436
REMARK  182  A    between atoms: _436  and  _437
REMARK  183  A    between atoms: _437  and  _438
REMARK  184  A    between atoms: _438  and  _439
REMARK  185  A    between atoms: _439  and  _440
REMARK  186  A    between atoms: _444  and  _446
REMARK  187  A    between atoms: _446  and  _447
REMARK  188  A    between atoms: _450  and  _452
REMARK  189  A    between atoms: _452  and  _453
REMARK  190  A    between atoms: _452  and  _455
REMARK  191  A    between atoms: _457  and  _459
REMARK  192  A    between atoms: _459  and  _460
REMARK  193  A    between atoms: _463  and  _465
REMARK  194  A    between atoms: _465  and  _466
REMARK  195  A    between atoms: _465  and  _468
REMARK  196  A    between atoms: _468  and  _469
REMARK  197  A    between atoms: _471  and  _473
REMARK  198  A    between atoms: _473  and  _474
REMARK  199  A    between atoms: _473  and  _476
REMARK  200  A    between atoms: _476  and  _477
REMARK  201  A    between atoms: _480  and  _482
REMARK  202  A    between atoms: _482  and  _483
REMARK  203  A    between atoms: _482  and  _485
REMARK  204  A    between atoms: _485  and  _486
REMARK  205  A    between atoms: _489  and  _491
REMARK  206  A    between atoms: _491  and  _492
REMARK  207  A    between atoms: _491  and  _494
REMARK  208  A    between atoms: _494  and  _495
REMARK  209  A    between atoms: _495  and  _496
REMARK  210  A    between atoms: _501  and  _503
REMARK  211  A    between atoms: _503  and  _504
REMARK  212  A    between atoms: _503  and  _506
REMARK  213  A    between atoms: _506  and  _507
REMARK  214  A    between atoms: _513  and  _515
REMARK  215  A    between atoms: _515  and  _516
REMARK  216  A    between atoms: _515  and  _518
REMARK  217  A    between atoms: _518  and  _519
REMARK  218  A    between atoms: _519  and  _520
REMARK  219  A    between atoms: _520  and  _521
REMARK  220  A    between atoms: _521  and  _522
REMARK  221  A    between atoms: _526  and  _528
REMARK  222  A    between atoms: _528  and  _529
REMARK  223  A    between atoms: _528  and  _531
REMARK  224  A    between atoms: _531  and  _532
REMARK  225  A    between atoms: _537  and  _539
REMARK  226  A    between atoms: _539  and  _540
REMARK  227  A    between atoms: _539  and  _542
REMARK  228  A    between atoms: _542  and  _543
REMARK  229  A    between atoms: _549  and  _551
REMARK  230  A    between atoms: _551  and  _552
REMARK  231  A    between atoms: _551  and  _554
REMARK  232  A    between atoms: _554  and  _555
REMARK  233  A    between atoms: _555  and  _556
REMARK  234  A    between atoms: _559  and  _561
REMARK  235  A    between atoms: _561  and  _562
REMARK  236  A    between atoms: _561  and  _564
REMARK  237  A    between atoms: _564  and  _565
REMARK  238  A    between atoms: _565  and  _566
REMARK  239  A    between atoms: _571  and  _573
REMARK  240  A    between atoms: _573  and  _574
REMARK  241  A    between atoms: _573  and  _576
REMARK  242  A    between atoms: _576  and  _577
REMARK  243  A    between atoms: _577  and  _578
REMARK  244  A    between atoms: _578  and  _579
REMARK  245  A    between atoms: _588  and  _590
REMARK  246  A    between atoms: _590  and  _591
REMARK                            x       y       z     vdW  Elec       q    Type
REMARK                         _______ _______ _______ _____ _____    ______ ____
ROOT
ATOM      1  O   HOH     1      21.182  26.820  51.896  0.00  0.00    +0.000 OA
ENDROOT
TORSDOF 0
REMARK  Name = ../refined-set-2016/2xpc/2xpc_pocket.pdb
REMARK  246 active torsions:
REMARK  status: ('A' for Active; 'I' for Inactive)
REMARK    1  A    between atoms: _1  and  _3
REMARK    2  A    between atoms: _3  and  _4
REMARK    3  A    between atoms: _3  and  _6
REMARK    4  A    between atoms: _6  and  _7
REMARK    5  A    between atoms: _10  and  _12
REMARK    6  A    between atoms: _12  and  _13
REMARK    7  A    between atoms: _12  and  _15
REMARK    8  A    between atoms: _15  and  _16
REMARK    9  A    between atoms: _19  and  _21
REMARK   10  A    between atoms: _21  and  _22
REMARK   11  A    between atoms: _24  and  _26
REMARK   12  A    between atoms: _26  and  _27
REMARK   13  A    between atoms: _26  and  _29
REMARK   14  A    between atoms: _29  and  _30
REMARK   15  A    between atoms: _33  and  _35
REMARK   16  A    between atoms: _35  and  _36
REMARK   17  A    between atoms: _38  and  _40
REMARK   18  A    between atoms: _40  and  _41
REMARK   19  A    between atoms: _40  and  _43
REMARK   20  A    between atoms: _43  and  _44
REMARK   21  A    between atoms: _47  and  _49
REMARK   22  A    between atoms: _49  and  _50
REMARK   23  A    between atoms: _49  and  _52
REMARK   24  A    between atoms: _52  and  _53
REMARK   25  A    between atoms: _56  and  _58
REMARK   26  A    between atoms: _58  and  _59
REMARK   27  A    between atoms: _61  and  _63
REMARK   28  A    between atoms: _63  and  _64
REMARK   29  A    between atoms: _63  and  _66
REMARK   30  A    between atoms: _66  and  _67
REMARK   31  A    between atoms: _67  and  _68
REMARK   32  A    between atoms: _70  and  _72
REMARK   33  A    between atoms: _72  and  _73
REMARK   34  A    between atoms: _72  and  _75
REMARK   35  A    between atoms: _75  and  _76
REMARK   36  A    between atoms: _79  and  _81
REMARK   37  A    between atoms: _81  and  _82
REMARK   38  A    between atoms: _81  and  _84
REMARK   39  A    between atoms: _84  and  _85
REMARK   40  A    between atoms: _88  and  _90
REMARK   41  A    between atoms: _90  and  _91
REMARK   42  A    between atoms: _90  and  _93
REMARK   43  A    between atoms: _93  and  _94
REMARK   44  A    between atoms: _94  and  _95
REMARK   45  A    between atoms: _95  and  _96
REMARK   46  A    between atoms: _106  and  _107
REMARK   47  A    between atoms: _113  and  _114
REMARK   48  A    between atoms: _119  and  _121
REMARK   49  A    between atoms: _121  and  _122
REMARK   50  A    between atoms: _121  and  _124
REMARK   51  A    between atoms: _124  and  _125
REMARK   52  A    between atoms: _130  and  _132
REMARK   53  A    between atoms: _132  and  _133
REMARK   54  A    between atoms: _135  and  _137
REMARK   55  A    between atoms: _137  and  _138
REMARK   56  A    between atoms: _137  and  _140
REMARK   57  A    between atoms: _140  and  _141
REMARK   58  A    between atoms: _143  and  _145
REMARK   59  A    between atoms: _145  and  _146
REMARK   60  A    between atoms: _145  and  _148
REMARK   61  A    between atoms: _148  and  _149
REMARK   62  A    between atoms: _152  and  _154
REMARK   63  A    between atoms: _154  and  _155
REMARK   64  A    between atoms: _154  and  _157
REMARK   65  A    between atoms: _157  and  _158
REMARK   66  A    between atoms: _163  and  _165
REMARK   67  A    between atoms: _165  and  _166
REMARK   68  A    between atoms: _169  and  _171
REMARK   69  A    between atoms: _171  and  _172
REMARK   70  A    between atoms: _171  and  _174
REMARK   71  A    between atoms: _174  and  _175
REMARK   72  A    between atoms: _178  and  _179
REMARK   73  A    between atoms: _184  and  _186
REMARK   74  A    between atoms: _186  and  _187
REMARK   75  A    between atoms: _189  and  _191
REMARK   76  A    between atoms: _191  and  _192
REMARK   77  A    between atoms: _191  and  _194
REMARK   78  A    between atoms: _194  and  _195
REMARK   79  A    between atoms: _198  and  _200
REMARK   80  A    between atoms: _200  and  _201
REMARK   81  A    between atoms: _204  and  _206
REMARK   82  A    between atoms: _206  and  _207
REMARK   83  A    between atoms: _206  and  _209
REMARK   84  A    between atoms: _209  and  _210
REMARK   85  A    between atoms: _215  and  _217
REMARK   86  A    between atoms: _217  and  _218
REMARK   87  A    between atoms: _217  and  _220
REMARK   88  A    between atoms: _220  and  _221
REMARK   89  A    between atoms: _223  and  _225
REMARK   90  A    between atoms: _225  and  _226
REMARK   91  A    between atoms: _225  and  _228
REMARK   92  A    between atoms: _228  and  _229
REMARK   93  A    between atoms: _229  and  _230
REMARK   94  A    between atoms: _230  and  _231
REMARK   95  A    between atoms: _231  and  _232
REMARK   96  A    between atoms: _236  and  _238
REMARK   97  A    between atoms: _238  and  _239
REMARK   98  A    between atoms: _238  and  _241
REMARK   99  A    between atoms: _241  and  _242
REMARK  100  A    between atoms: _247  and  _249
REMARK  101  A    between atoms: _249  and  _250
REMARK  102  A    between atoms: _249  and  _252
REMARK  103  A    between atoms: _252  and  _253
REMARK  104  A    between atoms: _255  and  _257
REMARK  105  A    between atoms: _257  and  _258
REMARK  106  A    between atoms: _257  and  _260
REMARK  107  A    between atoms: _260  and  _261
REMARK  108  A    between atoms: _263  and  _265
REMARK  109  A    between atoms: _265  and  _266
REMARK  110  A    between atoms: _265  and  _268
REMARK  111  A    between atoms: _268  and  _269
REMARK  112  A    between atoms: _275  and  _277
REMARK  113  A    between atoms: _277  and  _278
REMARK  114  A    between atoms: _277  and  _280
REMARK  115  A    between atoms: _280  and  _281
REMARK  116  A    between atoms: _281  and  _282
REMARK  117  A    between atoms: _287  and  _289
REMARK  118  A    between atoms: _289  and  _290
REMARK  119  A    between atoms: _289  and  _292
REMARK  120  A    between atoms: _292  and  _293
REMARK  121  A    between atoms: _296  and  _298
REMARK  122  A    between atoms: _298  and  _299
REMARK  123  A    between atoms: _298  and  _301
REMARK  124  A    between atoms: _301  and  _302
REMARK  125  A    between atoms: _307  and  _309
REMARK  126  A    between atoms: _309  and  _310
REMARK  127  A    between atoms: _309  and  _312
REMARK  128  A    between atoms: _312  and  _313
REMARK  129  A    between atoms: _313  and  _314
REMARK  130  A    between atoms: _316  and  _318
REMARK  131  A    between atoms: _318  and  _319
REMARK  132  A    between atoms: _318  and  _321
REMARK  133  A    between atoms: _321  and  _322
REMARK  134  A    between atoms: _325  and  _327
REMARK  135  A    between atoms: _327  and  _328
REMARK  136  A    between atoms: _327  and  _330
REMARK  137  A    between atoms: _330  and  _331
REMARK  138  A    between atoms: _331  and  _332
REMARK  139  A    between atoms: _332  and  _333
REMARK  140  A    between atoms: _342  and  _344
REMARK  141  A    between atoms: _344  and  _345
REMARK  142  A    between atoms: _344  and  _347
REMARK  143  A    between atoms: _347  and  _348
REMARK  144  A    between atoms: _353  and  _354
REMARK  145  A    between atoms: _356  and  _358
REMARK  146  A    between atoms: _358  and  _359
REMARK  147  A    between atoms: _358  and  _365
REMARK  148  A    between atoms: _359  and  _360
REMARK  149  A    between atoms: _360  and  _361
REMARK  150  A    between atoms: _361  and  _362
REMARK  151  A    between atoms: _362  and  _363
REMARK  152  A    between atoms: _370  and  _372
REMARK  153  A    between atoms: _372  and  _373
REMARK  154  A    between atoms: _372  and  _375
REMARK  155  A    between atoms: _375  and  _376
REMARK  156  A    between atoms: _378  and  _380
REMARK  157  A    between atoms: _380  and  _381
REMARK  158  A    between atoms: _380  and  _383
REMARK  159  A    between atoms: _383  and  _384
REMARK  160  A    between atoms: _384  and  _385
REMARK  161  A    between atoms: _385  and  _386
REMARK  162  A    between atoms: _386  and  _387
REMARK  163  A    between atoms: _391  and  _393
REMARK  164  A    between atoms: _393  and  _394
REMARK  165  A    between atoms: _397  and  _399
REMARK  166  A    between atoms: _399  and  _400
REMARK  167  A    between atoms: _399  and  _402
REMARK  168  A    between atoms: _402  and  _403
REMARK  169  A    between atoms: _406  and  _408
REMARK  170  A    between atoms: _408  and  _409
REMARK  171  A    between atoms: _408  and  _411
REMARK  172  A    between atoms: _411  and  _412
REMARK  173  A    between atoms: _417  and  _419
REMARK  174  A    between atoms: _419  and  _420
REMARK  175  A    between atoms: _419  and  _422
REMARK  176  A    between atoms: _422  and  _423
REMARK  177  A    between atoms: _426  and  _428
REMARK  178  A    between atoms: _428  and  _429
REMARK  179  A    between atoms: _431  and  _433
REMARK  180  A    between atoms: _433  and  _434
REMARK  181  A    between atoms: _433  and  _436
REMARK  182  A    between atoms: _436  and  _437
REMARK  183  A    between atoms: _437  and  _438
REMARK  184  A    between atoms: _438  and  _439
REMARK  185  A    between atoms: _439  and  _440
REMARK  186  A    between atoms: _444  and  _446
REMARK  187  A    between atoms: _446  and  _447
REMARK  188  A    between atoms: _450  and  _452
REMARK  189  A    between atoms: _452  and  _453
REMARK  190  A    between atoms: _452  and  _455
REMARK  191  A    between atoms: _457  and  _459
REMARK  192  A    between atoms: _459  and  _460
REMARK  193  A    between atoms: _463  and  _465
REMARK  194  A    between atoms: _465  and  _466
REMARK  195  A    between atoms: _465  and  _468
REMARK  196  A    between atoms: _468  and  _469
REMARK  197  A    between atoms: _471  and  _473
REMARK  198  A    between atoms: _473  and  _474
REMARK  199  A    between atoms: _473  and  _476
REMARK  200  A    between atoms: _476  and  _477
REMARK  201  A    between atoms: _480  and  _482
REMARK  202  A    between atoms: _482  and  _483
REMARK  203  A    between atoms: _482  and  _485
REMARK  204  A    between atoms: _485  and  _486
REMARK  205  A    between atoms: _489  and  _491
REMARK  206  A    between atoms: _491  and  _492
REMARK  207  A    between atoms: _491  and  _494
REMARK  208  A    between atoms: _494  and  _495
REMARK  209  A    between atoms: _495  and  _496
REMARK  210  A    between atoms: _501  and  _503
REMARK  211  A    between atoms: _503  and  _504
REMARK  212  A    between atoms: _503  and  _506
REMARK  213  A    between atoms: _506  and  _507
REMARK  214  A    between atoms: _513  and  _515
REMARK  215  A    between atoms: _515  and  _516
REMARK  216  A    between atoms: _515  and  _518
REMARK  217  A    between atoms: _518  and  _519
REMARK  218  A    between atoms: _519  and  _520
REMARK  219  A    between atoms: _520  and  _521
REMARK  220  A    between atoms: _521  and  _522
REMARK  221  A    between atoms: _526  and  _528
REMARK  222  A    between atoms: _528  and  _529
REMARK  223  A    between atoms: _528  and  _531
REMARK  224  A    between atoms: _531  and  _532
REMARK  225  A    between atoms: _537  and  _539
REMARK  226  A    between atoms: _539  and  _540
REMARK  227  A    between atoms: _539  and  _542
REMARK  228  A    between atoms: _542  and  _543
REMARK  229  A    between atoms: _549  and  _551
REMARK  230  A    between atoms: _551  and  _552
REMARK  231  A    between atoms: _551  and  _554
REMARK  232  A    between atoms: _554  and  _555
REMARK  233  A    between atoms: _555  and  _556
REMARK  234  A    between atoms: _559  and  _561
REMARK  235  A    between atoms: _561  and  _562
REMARK  236  A    between atoms: _561  and  _564
REMARK  237  A    between atoms: _564  and  _565
REMARK  238  A    between atoms: _565  and  _566
REMARK  239  A    between atoms: _571  and  _573
REMARK  240  A    between atoms: _573  and  _574
REMARK  241  A    between atoms: _573  and  _576
REMARK  242  A    between atoms: _576  and  _577
REMARK  243  A    between atoms: _577  and  _578
REMARK  244  A    between atoms: _578  and  _579
REMARK  245  A    between atoms: _588  and  _590
REMARK  246  A    between atoms: _590  and  _591
REMARK                            x       y       z     vdW  Elec       q    Type
REMARK                         _______ _______ _______ _____ _____    ______ ____
ROOT
ATOM      1  O   HOH     1      20.137  27.727  44.214  0.00  0.00    +0.000 OA
ENDROOT
TORSDOF 0
REMARK  Name = ../refined-set-2016/2xpc/2xpc_pocket.pdb
REMARK  246 active torsions:
REMARK  status: ('A' for Active; 'I' for Inactive)
REMARK    1  A    between atoms: _1  and  _3
REMARK    2  A    between atoms: _3  and  _4
REMARK    3  A    between atoms: _3  and  _6
REMARK    4  A    between atoms: _6  and  _7
REMARK    5  A    between atoms: _10  and  _12
REMARK    6  A    between atoms: _12  and  _13
REMARK    7  A    between atoms: _12  and  _15
REMARK    8  A    between atoms: _15  and  _16
REMARK    9  A    between atoms: _19  and  _21
REMARK   10  A    between atoms: _21  and  _22
REMARK   11  A    between atoms: _24  and  _26
REMARK   12  A    between atoms: _26  and  _27
REMARK   13  A    between atoms: _26  and  _29
REMARK   14  A    between atoms: _29  and  _30
REMARK   15  A    between atoms: _33  and  _35
REMARK   16  A    between atoms: _35  and  _36
REMARK   17  A    between atoms: _38  and  _40
REMARK   18  A    between atoms: _40  and  _41
REMARK   19  A    between atoms: _40  and  _43
REMARK   20  A    between atoms: _43  and  _44
REMARK   21  A    between atoms: _47  and  _49
REMARK   22  A    between atoms: _49  and  _50
REMARK   23  A    between atoms: _49  and  _52
REMARK   24  A    between atoms: _52  and  _53
REMARK   25  A    between atoms: _56  and  _58
REMARK   26  A    between atoms: _58  and  _59
REMARK   27  A    between atoms: _61  and  _63
REMARK   28  A    between atoms: _63  and  _64
REMARK   29  A    between atoms: _63  and  _66
REMARK   30  A    between atoms: _66  and  _67
REMARK   31  A    between atoms: _67  and  _68
REMARK   32  A    between atoms: _70  and  _72
REMARK   33  A    between atoms: _72  and  _73
REMARK   34  A    between atoms: _72  and  _75
REMARK   35  A    between atoms: _75  and  _76
REMARK   36  A    between atoms: _79  and  _81
REMARK   37  A    between atoms: _81  and  _82
REMARK   38  A    between atoms: _81  and  _84
REMARK   39  A    between atoms: _84  and  _85
REMARK   40  A    between atoms: _88  and  _90
REMARK   41  A    between atoms: _90  and  _91
REMARK   42  A    between atoms: _90  and  _93
REMARK   43  A    between atoms: _93  and  _94
REMARK   44  A    between atoms: _94  and  _95
REMARK   45  A    between atoms: _95  and  _96
REMARK   46  A    between atoms: _106  and  _107
REMARK   47  A    between atoms: _113  and  _114
REMARK   48  A    between atoms: _119  and  _121
REMARK   49  A    between atoms: _121  and  _122
REMARK   50  A    between atoms: _121  and  _124
REMARK   51  A    between atoms: _124  and  _125
REMARK   52  A    between atoms: _130  and  _132
REMARK   53  A    between atoms: _132  and  _133
REMARK   54  A    between atoms: _135  and  _137
REMARK   55  A    between atoms: _137  and  _138
REMARK   56  A    between atoms: _137  and  _140
REMARK   57  A    between atoms: _140  and  _141
REMARK   58  A    between atoms: _143  and  _145
REMARK   59  A    between atoms: _145  and  _146
REMARK   60  A    between atoms: _145  and  _148
REMARK   61  A    between atoms: _148  and  _149
REMARK   62  A    between atoms: _152  and  _154
REMARK   63  A    between atoms: _154  and  _155
REMARK   64  A    between atoms: _154  and  _157
REMARK   65  A    between atoms: _157  and  _158
REMARK   66  A    between atoms: _163  and  _165
REMARK   67  A    between atoms: _165  and  _166
REMARK   68  A    between atoms: _169  and  _171
REMARK   69  A    between atoms: _171  and  _172
REMARK   70  A    between atoms: _171  and  _174
REMARK   71  A    between atoms: _174  and  _175
REMARK   72  A    between atoms: _178  and  _179
REMARK   73  A    between atoms: _184  and  _186
REMARK   74  A    between atoms: _186  and  _187
REMARK   75  A    between atoms: _189  and  _191
REMARK   76  A    between atoms: _191  and  _192
REMARK   77  A    between atoms: _191  and  _194
REMARK   78  A    between atoms: _194  and  _195
REMARK   79  A    between atoms: _198  and  _200
REMARK   80  A    between atoms: _200  and  _201
REMARK   81  A    between atoms: _204  and  _206
REMARK   82  A    between atoms: _206  and  _207
REMARK   83  A    between atoms: _206  and  _209
REMARK   84  A    between atoms: _209  and  _210
REMARK   85  A    between atoms: _215  and  _217
REMARK   86  A    between atoms: _217  and  _218
REMARK   87  A    between atoms: _217  and  _220
REMARK   88  A    between atoms: _220  and  _221
REMARK   89  A    between atoms: _223  and  _225
REMARK   90  A    between atoms: _225  and  _226
REMARK   91  A    between atoms: _225  and  _228
REMARK   92  A    between atoms: _228  and  _229
REMARK   93  A    between atoms: _229  and  _230
REMARK   94  A    between atoms: _230  and  _231
REMARK   95  A    between atoms: _231  and  _232
REMARK   96  A    between atoms: _236  and  _238
REMARK   97  A    between atoms: _238  and  _239
REMARK   98  A    between atoms: _238  and  _241
REMARK   99  A    between atoms: _241  and  _242
REMARK  100  A    between atoms: _247  and  _249
REMARK  101  A    between atoms: _249  and  _250
REMARK  102  A    between atoms: _249  and  _252
REMARK  103  A    between atoms: _252  and  _253
REMARK  104  A    between atoms: _255  and  _257
REMARK  105  A    between atoms: _257  and  _258
REMARK  106  A    between atoms: _257  and  _260
REMARK  107  A    between atoms: _260  and  _261
REMARK  108  A    between atoms: _263  and  _265
REMARK  109  A    between atoms: _265  and  _266
REMARK  110  A    between atoms: _265  and  _268
REMARK  111  A    between atoms: _268  and  _269
REMARK  112  A    between atoms: _275  and  _277
REMARK  113  A    between atoms: _277  and  _278
REMARK  114  A    between atoms: _277  and  _280
REMARK  115  A    between atoms: _280  and  _281
REMARK  116  A    between atoms: _281  and  _282
REMARK  117  A    between atoms: _287  and  _289
REMARK  118  A    between atoms: _289  and  _290
REMARK  119  A    between atoms: _289  and  _292
REMARK  120  A    between atoms: _292  and  _293
REMARK  121  A    between atoms: _296  and  _298
REMARK  122  A    between atoms: _298  and  _299
REMARK  123  A    between atoms: _298  and  _301
REMARK  124  A    between atoms: _301  and  _302
REMARK  125  A    between atoms: _307  and  _309
REMARK  126  A    between atoms: _309  and  _310
REMARK  127  A    between atoms: _309  and  _312
REMARK  128  A    between atoms: _312  and  _313
REMARK  129  A    between atoms: _313  and  _314
REMARK  130  A    between atoms: _316  and  _318
REMARK  131  A    between atoms: _318  and  _319
REMARK  132  A    between atoms: _318  and  _321
REMARK  133  A    between atoms: _321  and  _322
REMARK  134  A    between atoms: _325  and  _327
REMARK  135  A    between atoms: _327  and  _328
REMARK  136  A    between atoms: _327  and  _330
REMARK  137  A    between atoms: _330  and  _331
REMARK  138  A    between atoms: _331  and  _332
REMARK  139  A    between atoms: _332  and  _333
REMARK  140  A    between atoms: _342  and  _344
REMARK  141  A    between atoms: _344  and  _345
REMARK  142  A    between atoms: _344  and  _347
REMARK  143  A    between atoms: _347  and  _348
REMARK  144  A    between atoms: _353  and  _354
REMARK  145  A    between atoms: _356  and  _358
REMARK  146  A    between atoms: _358  and  _359
REMARK  147  A    between atoms: _358  and  _365
REMARK  148  A    between atoms: _359  and  _360
REMARK  149  A    between atoms: _360  and  _361
REMARK  150  A    between atoms: _361  and  _362
REMARK  151  A    between atoms: _362  and  _363
REMARK  152  A    between atoms: _370  and  _372
REMARK  153  A    between atoms: _372  and  _373
REMARK  154  A    between atoms: _372  and  _375
REMARK  155  A    between atoms: _375  and  _376
REMARK  156  A    between atoms: _378  and  _380
REMARK  157  A    between atoms: _380  and  _381
REMARK  158  A    between atoms: _380  and  _383
REMARK  159  A    between atoms: _383  and  _384
REMARK  160  A    between atoms: _384  and  _385
REMARK  161  A    between atoms: _385  and  _386
REMARK  162  A    between atoms: _386  and  _387
REMARK  163  A    between atoms: _391  and  _393
REMARK  164  A    between atoms: _393  and  _394
REMARK  165  A    between atoms: _397  and  _399
REMARK  166  A    between atoms: _399  and  _400
REMARK  167  A    between atoms: _399  and  _402
REMARK  168  A    between atoms: _402  and  _403
REMARK  169  A    between atoms: _406  and  _408
REMARK  170  A    between atoms: _408  and  _409
REMARK  171  A    between atoms: _408  and  _411
REMARK  172  A    between atoms: _411  and  _412
REMARK  173  A    between atoms: _417  and  _419
REMARK  174  A    between atoms: _419  and  _420
REMARK  175  A    between atoms: _419  and  _422
REMARK  176  A    between atoms: _422  and  _423
REMARK  177  A    between atoms: _426  and  _428
REMARK  178  A    between atoms: _428  and  _429
REMARK  179  A    between atoms: _431  and  _433
REMARK  180  A    between atoms: _433  and  _434
REMARK  181  A    between atoms: _433  and  _436
REMARK  182  A    between atoms: _436  and  _437
REMARK  183  A    between atoms: _437  and  _438
REMARK  184  A    between atoms: _438  and  _439
REMARK  185  A    between atoms: _439  and  _440
REMARK  186  A    between atoms: _444  and  _446
REMARK  187  A    between atoms: _446  and  _447
REMARK  188  A    between atoms: _450  and  _452
REMARK  189  A    between atoms: _452  and  _453
REMARK  190  A    between atoms: _452  and  _455
REMARK  191  A    between atoms: _457  and  _459
REMARK  192  A    between atoms: _459  and  _460
REMARK  193  A    between atoms: _463  and  _465
REMARK  194  A    between atoms: _465  and  _466
REMARK  195  A    between atoms: _465  and  _468
REMARK  196  A    between atoms: _468  and  _469
REMARK  197  A    between atoms: _471  and  _473
REMARK  198  A    between atoms: _473  and  _474
REMARK  199  A    between atoms: _473  and  _476
REMARK  200  A    between atoms: _476  and  _477
REMARK  201  A    between atoms: _480  and  _482
REMARK  202  A    between atoms: _482  and  _483
REMARK  203  A    between atoms: _482  and  _485
REMARK  204  A    between atoms: _485  and  _486
REMARK  205  A    between atoms: _489  and  _491
REMARK  206  A    between atoms: _491  and  _492
REMARK  207  A    between atoms: _491  and  _494
REMARK  208  A    between atoms: _494  and  _495
REMARK  209  A    between atoms: _495  and  _496
REMARK  210  A    between atoms: _501  and  _503
REMARK  211  A    between atoms: _503  and  _504
REMARK  212  A    between atoms: _503  and  _506
REMARK  213  A    between atoms: _506  and  _507
REMARK  214  A    between atoms: _513  and  _515
REMARK  215  A    between atoms: _515  and  _516
REMARK  216  A    between atoms: _515  and  _518
REMARK  217  A    between atoms: _518  and  _519
REMARK  218  A    between atoms: _519  and  _520
REMARK  219  A    between atoms: _520  and  _521
REMARK  220  A    between atoms: _521  and  _522
REMARK  221  A    between atoms: _526  and  _528
REMARK  222  A    between atoms: _528  and  _529
REMARK  223  A    between atoms: _528  and  _531
REMARK  224  A    between atoms: _531  and  _532
REMARK  225  A    between atoms: _537  and  _539
REMARK  226  A    between atoms: _539  and  _540
REMARK  227  A    between atoms: _539  and  _542
REMARK  228  A    between atoms: _542  and  _543
REMARK  229  A    between atoms: _549  and  _551
REMARK  230  A    between atoms: _551  and  _552
REMARK  231  A    between atoms: _551  and  _554
REMARK  232  A    between atoms: _554  and  _555
REMARK  233  A    between atoms: _555  and  _556
REMARK  234  A    between atoms: _559  and  _561
REMARK  235  A    between atoms: _561  and  _562
REMARK  236  A    between atoms: _561  and  _564
REMARK  237  A    between atoms: _564  and  _565
REMARK  238  A    between atoms: _565  and  _566
REMARK  239  A    between atoms: _571  and  _573
REMARK  240  A    between atoms: _573  and  _574
REMARK  241  A    between atoms: _573  and  _576
REMARK  242  A    between atoms: _576  and  _577
REMARK  243  A    between atoms: _577  and  _578
REMARK  244  A    between atoms: _578  and  _579
REMARK  245  A    between atoms: _588  and  _590
REMARK  246  A    between atoms: _590  and  _591
REMARK                            x       y       z     vdW  Elec       q    Type
REMARK                         _______ _______ _______ _____ _____    ______ ____
ROOT
ATOM      1  O   HOH     1      24.672  32.098  40.570  0.00  0.00    +0.000 OA
ENDROOT
TORSDOF 0
REMARK  Name = ../refined-set-2016/2xpc/2xpc_pocket.pdb
REMARK  246 active torsions:
REMARK  status: ('A' for Active; 'I' for Inactive)
REMARK    1  A    between atoms: _1  and  _3
REMARK    2  A    between atoms: _3  and  _4
REMARK    3  A    between atoms: _3  and  _6
REMARK    4  A    between atoms: _6  and  _7
REMARK    5  A    between atoms: _10  and  _12
REMARK    6  A    between atoms: _12  and  _13
REMARK    7  A    between atoms: _12  and  _15
REMARK    8  A    between atoms: _15  and  _16
REMARK    9  A    between atoms: _19  and  _21
REMARK   10  A    between atoms: _21  and  _22
REMARK   11  A    between atoms: _24  and  _26
REMARK   12  A    between atoms: _26  and  _27
REMARK   13  A    between atoms: _26  and  _29
REMARK   14  A    between atoms: _29  and  _30
REMARK   15  A    between atoms: _33  and  _35
REMARK   16  A    between atoms: _35  and  _36
REMARK   17  A    between atoms: _38  and  _40
REMARK   18  A    between atoms: _40  and  _41
REMARK   19  A    between atoms: _40  and  _43
REMARK   20  A    between atoms: _43  and  _44
REMARK   21  A    between atoms: _47  and  _49
REMARK   22  A    between atoms: _49  and  _50
REMARK   23  A    between atoms: _49  and  _52
REMARK   24  A    between atoms: _52  and  _53
REMARK   25  A    between atoms: _56  and  _58
REMARK   26  A    between atoms: _58  and  _59
REMARK   27  A    between atoms: _61  and  _63
REMARK   28  A    between atoms: _63  and  _64
REMARK   29  A    between atoms: _63  and  _66
REMARK   30  A    between atoms: _66  and  _67
REMARK   31  A    between atoms: _67  and  _68
REMARK   32  A    between atoms: _70  and  _72
REMARK   33  A    between atoms: _72  and  _73
REMARK   34  A    between atoms: _72  and  _75
REMARK   35  A    between atoms: _75  and  _76
REMARK   36  A    between atoms: _79  and  _81
REMARK   37  A    between atoms: _81  and  _82
REMARK   38  A    between atoms: _81  and  _84
REMARK   39  A    between atoms: _84  and  _85
REMARK   40  A    between atoms: _88  and  _90
REMARK   41  A    between atoms: _90  and  _91
REMARK   42  A    between atoms: _90  and  _93
REMARK   43  A    between atoms: _93  and  _94
REMARK   44  A    between atoms: _94  and  _95
REMARK   45  A    between atoms: _95  and  _96
REMARK   46  A    between atoms: _106  and  _107
REMARK   47  A    between atoms: _113  and  _114
REMARK   48  A    between atoms: _119  and  _121
REMARK   49  A    between atoms: _121  and  _122
REMARK   50  A    between atoms: _121  and  _124
REMARK   51  A    between atoms: _124  and  _125
REMARK   52  A    between atoms: _130  and  _132
REMARK   53  A    between atoms: _132  and  _133
REMARK   54  A    between atoms: _135  and  _137
REMARK   55  A    between atoms: _137  and  _138
REMARK   56  A    between atoms: _137  and  _140
REMARK   57  A    between atoms: _140  and  _141
REMARK   58  A    between atoms: _143  and  _145
REMARK   59  A    between atoms: _145  and  _146
REMARK   60  A    between atoms: _145  and  _148
REMARK   61  A    between atoms: _148  and  _149
REMARK   62  A    between atoms: _152  and  _154
REMARK   63  A    between atoms: _154  and  _155
REMARK   64  A    between atoms: _154  and  _157
REMARK   65  A    between atoms: _157  and  _158
REMARK   66  A    between atoms: _163  and  _165
REMARK   67  A    between atoms: _165  and  _166
REMARK   68  A    between atoms: _169  and  _171
REMARK   69  A    between atoms: _171  and  _172
REMARK   70  A    between atoms: _171  and  _174
REMARK   71  A    between atoms: _174  and  _175
REMARK   72  A    between atoms: _178  and  _179
REMARK   73  A    between atoms: _184  and  _186
REMARK   74  A    between atoms: _186  and  _187
REMARK   75  A    between atoms: _189  and  _191
REMARK   76  A    between atoms: _191  and  _192
REMARK   77  A    between atoms: _191  and  _194
REMARK   78  A    between atoms: _194  and  _195
REMARK   79  A    between atoms: _198  and  _200
REMARK   80  A    between atoms: _200  and  _201
REMARK   81  A    between atoms: _204  and  _206
REMARK   82  A    between atoms: _206  and  _207
REMARK   83  A    between atoms: _206  and  _209
REMARK   84  A    between atoms: _209  and  _210
REMARK   85  A    between atoms: _215  and  _217
REMARK   86  A    between atoms: _217  and  _218
REMARK   87  A    between atoms: _217  and  _220
REMARK   88  A    between atoms: _220  and  _221
REMARK   89  A    between atoms: _223  and  _225
REMARK   90  A    between atoms: _225  and  _226
REMARK   91  A    between atoms: _225  and  _228
REMARK   92  A    between atoms: _228  and  _229
REMARK   93  A    between atoms: _229  and  _230
REMARK   94  A    between atoms: _230  and  _231
REMARK   95  A    between atoms: _231  and  _232
REMARK   96  A    between atoms: _236  and  _238
REMARK   97  A    between atoms: _238  and  _239
REMARK   98  A    between atoms: _238  and  _241
REMARK   99  A    between atoms: _241  and  _242
REMARK  100  A    between atoms: _247  and  _249
REMARK  101  A    between atoms: _249  and  _250
REMARK  102  A    between atoms: _249  and  _252
REMARK  103  A    between atoms: _252  and  _253
REMARK  104  A    between atoms: _255  and  _257
REMARK  105  A    between atoms: _257  and  _258
REMARK  106  A    between atoms: _257  and  _260
REMARK  107  A    between atoms: _260  and  _261
REMARK  108  A    between atoms: _263  and  _265
REMARK  109  A    between atoms: _265  and  _266
REMARK  110  A    between atoms: _265  and  _268
REMARK  111  A    between atoms: _268  and  _269
REMARK  112  A    between atoms: _275  and  _277
REMARK  113  A    between atoms: _277  and  _278
REMARK  114  A    between atoms: _277  and  _280
REMARK  115  A    between atoms: _280  and  _281
REMARK  116  A    between atoms: _281  and  _282
REMARK  117  A    between atoms: _287  and  _289
REMARK  118  A    between atoms: _289  and  _290
REMARK  119  A    between atoms: _289  and  _292
REMARK  120  A    between atoms: _292  and  _293
REMARK  121  A    between atoms: _296  and  _298
REMARK  122  A    between atoms: _298  and  _299
REMARK  123  A    between atoms: _298  and  _301
REMARK  124  A    between atoms: _301  and  _302
REMARK  125  A    between atoms: _307  and  _309
REMARK  126  A    between atoms: _309  and  _310
REMARK  127  A    between atoms: _309  and  _312
REMARK  128  A    between atoms: _312  and  _313
REMARK  129  A    between atoms: _313  and  _314
REMARK  130  A    between atoms: _316  and  _318
REMARK  131  A    between atoms: _318  and  _319
REMARK  132  A    between atoms: _318  and  _321
REMARK  133  A    between atoms: _321  and  _322
REMARK  134  A    between atoms: _325  and  _327
REMARK  135  A    between atoms: _327  and  _328
REMARK  136  A    between atoms: _327  and  _330
REMARK  137  A    between atoms: _330  and  _331
REMARK  138  A    between atoms: _331  and  _332
REMARK  139  A    between atoms: _332  and  _333
REMARK  140  A    between atoms: _342  and  _344
REMARK  141  A    between atoms: _344  and  _345
REMARK  142  A    between atoms: _344  and  _347
REMARK  143  A    between atoms: _347  and  _348
REMARK  144  A    between atoms: _353  and  _354
REMARK  145  A    between atoms: _356  and  _358
REMARK  146  A    between atoms: _358  and  _359
REMARK  147  A    between atoms: _358  and  _365
REMARK  148  A    between atoms: _359  and  _360
REMARK  149  A    between atoms: _360  and  _361
REMARK  150  A    between atoms: _361  and  _362
REMARK  151  A    between atoms: _362  and  _363
REMARK  152  A    between atoms: _370  and  _372
REMARK  153  A    between atoms: _372  and  _373
REMARK  154  A    between atoms: _372  and  _375
REMARK  155  A    between atoms: _375  and  _376
REMARK  156  A    between atoms: _378  and  _380
REMARK  157  A    between atoms: _380  and  _381
REMARK  158  A    between atoms: _380  and  _383
REMARK  159  A    between atoms: _383  and  _384
REMARK  160  A    between atoms: _384  and  _385
REMARK  161  A    between atoms: _385  and  _386
REMARK  162  A    between atoms: _386  and  _387
REMARK  163  A    between atoms: _391  and  _393
REMARK  164  A    between atoms: _393  and  _394
REMARK  165  A    between atoms: _397  and  _399
REMARK  166  A    between atoms: _399  and  _400
REMARK  167  A    between atoms: _399  and  _402
REMARK  168  A    between atoms: _402  and  _403
REMARK  169  A    between atoms: _406  and  _408
REMARK  170  A    between atoms: _408  and  _409
REMARK  171  A    between atoms: _408  and  _411
REMARK  172  A    between atoms: _411  and  _412
REMARK  173  A    between atoms: _417  and  _419
REMARK  174  A    between atoms: _419  and  _420
REMARK  175  A    between atoms: _419  and  _422
REMARK  176  A    between atoms: _422  and  _423
REMARK  177  A    between atoms: _426  and  _428
REMARK  178  A    between atoms: _428  and  _429
REMARK  179  A    between atoms: _431  and  _433
REMARK  180  A    between atoms: _433  and  _434
REMARK  181  A    between atoms: _433  and  _436
REMARK  182  A    between atoms: _436  and  _437
REMARK  183  A    between atoms: _437  and  _438
REMARK  184  A    between atoms: _438  and  _439
REMARK  185  A    between atoms: _439  and  _440
REMARK  186  A    between atoms: _444  and  _446
REMARK  187  A    between atoms: _446  and  _447
REMARK  188  A    between atoms: _450  and  _452
REMARK  189  A    between atoms: _452  and  _453
REMARK  190  A    between atoms: _452  and  _455
REMARK  191  A    between atoms: _457  and  _459
REMARK  192  A    between atoms: _459  and  _460
REMARK  193  A    between atoms: _463  and  _465
REMARK  194  A    between atoms: _465  and  _466
REMARK  195  A    between atoms: _465  and  _468
REMARK  196  A    between atoms: _468  and  _469
REMARK  197  A    between atoms: _471  and  _473
REMARK  198  A    between atoms: _473  and  _474
REMARK  199  A    between atoms: _473  and  _476
REMARK  200  A    between atoms: _476  and  _477
REMARK  201  A    between atoms: _480  and  _482
REMARK  202  A    between atoms: _482  and  _483
REMARK  203  A    between atoms: _482  and  _485
REMARK  204  A    between atoms: _485  and  _486
REMARK  205  A    between atoms: _489  and  _491
REMARK  206  A    between atoms: _491  and  _492
REMARK  207  A    between atoms: _491  and  _494
REMARK  208  A    between atoms: _494  and  _495
REMARK  209  A    between atoms: _495  and  _496
REMARK  210  A    between atoms: _501  and  _503
REMARK  211  A    between atoms: _503  and  _504
REMARK  212  A    between atoms: _503  and  _506
REMARK  213  A    between atoms: _506  and  _507
REMARK  214  A    between atoms: _513  and  _515
REMARK  215  A    between atoms: _515  and  _516
REMARK  216  A    between atoms: _515  and  _518
REMARK  217  A    between atoms: _518  and  _519
REMARK  218  A    between atoms: _519  and  _520
REMARK  219  A    between atoms: _520  and  _521
REMARK  220  A    between atoms: _521  and  _522
REMARK  221  A    between atoms: _526  and  _528
REMARK  222  A    between atoms: _528  and  _529
REMARK  223  A    between atoms: _528  and  _531
REMARK  224  A    between atoms: _531  and  _532
REMARK  225  A    between atoms: _537  and  _539
REMARK  226  A    between atoms: _539  and  _540
REMARK  227  A    between atoms: _539  and  _542
REMARK  228  A    between atoms: _542  and  _543
REMARK  229  A    between atoms: _549  and  _551
REMARK  230  A    between atoms: _551  and  _552
REMARK  231  A    between atoms: _551  and  _554
REMARK  232  A    between atoms: _554  and  _555
REMARK  233  A    between atoms: _555  and  _556
REMARK  234  A    between atoms: _559  and  _561
REMARK  235  A    between atoms: _561  and  _562
REMARK  236  A    between atoms: _561  and  _564
REMARK  237  A    between atoms: _564  and  _565
REMARK  238  A    between atoms: _565  and  _566
REMARK  239  A    between atoms: _571  and  _573
REMARK  240  A    between atoms: _573  and  _574
REMARK  241  A    between atoms: _573  and  _576
REMARK  242  A    between atoms: _576  and  _577
REMARK  243  A    between atoms: _577  and  _578
REMARK  244  A    between atoms: _578  and  _579
REMARK  245  A    between atoms: _588  and  _590
REMARK  246  A    between atoms: _590  and  _591
REMARK                            x       y       z     vdW  Elec       q    Type
REMARK                         _______ _______ _______ _____ _____    ______ ____
ROOT
ATOM      1  O   HOH     1      15.693  30.786  57.373  0.00  0.00    +0.000 OA
ENDROOT
TORSDOF 0
REMARK  Name = ../refined-set-2016/2xpc/2xpc_pocket.pdb
REMARK  246 active torsions:
REMARK  status: ('A' for Active; 'I' for Inactive)
REMARK    1  A    between atoms: _1  and  _3
REMARK    2  A    between atoms: _3  and  _4
REMARK    3  A    between atoms: _3  and  _6
REMARK    4  A    between atoms: _6  and  _7
REMARK    5  A    between atoms: _10  and  _12
REMARK    6  A    between atoms: _12  and  _13
REMARK    7  A    between atoms: _12  and  _15
REMARK    8  A    between atoms: _15  and  _16
REMARK    9  A    between atoms: _19  and  _21
REMARK   10  A    between atoms: _21  and  _22
REMARK   11  A    between atoms: _24  and  _26
REMARK   12  A    between atoms: _26  and  _27
REMARK   13  A    between atoms: _26  and  _29
REMARK   14  A    between atoms: _29  and  _30
REMARK   15  A    between atoms: _33  and  _35
REMARK   16  A    between atoms: _35  and  _36
REMARK   17  A    between atoms: _38  and  _40
REMARK   18  A    between atoms: _40  and  _41
REMARK   19  A    between atoms: _40  and  _43
REMARK   20  A    between atoms: _43  and  _44
REMARK   21  A    between atoms: _47  and  _49
REMARK   22  A    between atoms: _49  and  _50
REMARK   23  A    between atoms: _49  and  _52
REMARK   24  A    between atoms: _52  and  _53
REMARK   25  A    between atoms: _56  and  _58
REMARK   26  A    between atoms: _58  and  _59
REMARK   27  A    between atoms: _61  and  _63
REMARK   28  A    between atoms: _63  and  _64
REMARK   29  A    between atoms: _63  and  _66
REMARK   30  A    between atoms: _66  and  _67
REMARK   31  A    between atoms: _67  and  _68
REMARK   32  A    between atoms: _70  and  _72
REMARK   33  A    between atoms: _72  and  _73
REMARK   34  A    between atoms: _72  and  _75
REMARK   35  A    between atoms: _75  and  _76
REMARK   36  A    between atoms: _79  and  _81
REMARK   37  A    between atoms: _81  and  _82
REMARK   38  A    between atoms: _81  and  _84
REMARK   39  A    between atoms: _84  and  _85
REMARK   40  A    between atoms: _88  and  _90
REMARK   41  A    between atoms: _90  and  _91
REMARK   42  A    between atoms: _90  and  _93
REMARK   43  A    between atoms: _93  and  _94
REMARK   44  A    between atoms: _94  and  _95
REMARK   45  A    between atoms: _95  and  _96
REMARK   46  A    between atoms: _106  and  _107
REMARK   47  A    between atoms: _113  and  _114
REMARK   48  A    between atoms: _119  and  _121
REMARK   49  A    between atoms: _121  and  _122
REMARK   50  A    between atoms: _121  and  _124
REMARK   51  A    between atoms: _124  and  _125
REMARK   52  A    between atoms: _130  and  _132
REMARK   53  A    between atoms: _132  and  _133
REMARK   54  A    between atoms: _135  and  _137
REMARK   55  A    between atoms: _137  and  _138
REMARK   56  A    between atoms: _137  and  _140
REMARK   57  A    between atoms: _140  and  _141
REMARK   58  A    between atoms: _143  and  _145
REMARK   59  A    between atoms: _145  and  _146
REMARK   60  A    between atoms: _145  and  _148
REMARK   61  A    between atoms: _148  and  _149
REMARK   62  A    between atoms: _152  and  _154
REMARK   63  A    between atoms: _154  and  _155
REMARK   64  A    between atoms: _154  and  _157
REMARK   65  A    between atoms: _157  and  _158
REMARK   66  A    between atoms: _163  and  _165
REMARK   67  A    between atoms: _165  and  _166
REMARK   68  A    between atoms: _169  and  _171
REMARK   69  A    between atoms: _171  and  _172
REMARK   70  A    between atoms: _171  and  _174
REMARK   71  A    between atoms: _174  and  _175
REMARK   72  A    between atoms: _178  and  _179
REMARK   73  A    between atoms: _184  and  _186
REMARK   74  A    between atoms: _186  and  _187
REMARK   75  A    between atoms: _189  and  _191
REMARK   76  A    between atoms: _191  and  _192
REMARK   77  A    between atoms: _191  and  _194
REMARK   78  A    between atoms: _194  and  _195
REMARK   79  A    between atoms: _198  and  _200
REMARK   80  A    between atoms: _200  and  _201
REMARK   81  A    between atoms: _204  and  _206
REMARK   82  A    between atoms: _206  and  _207
REMARK   83  A    between atoms: _206  and  _209
REMARK   84  A    between atoms: _209  and  _210
REMARK   85  A    between atoms: _215  and  _217
REMARK   86  A    between atoms: _217  and  _218
REMARK   87  A    between atoms: _217  and  _220
REMARK   88  A    between atoms: _220  and  _221
REMARK   89  A    between atoms: _223  and  _225
REMARK   90  A    between atoms: _225  and  _226
REMARK   91  A    between atoms: _225  and  _228
REMARK   92  A    between atoms: _228  and  _229
REMARK   93  A    between atoms: _229  and  _230
REMARK   94  A    between atoms: _230  and  _231
REMARK   95  A    between atoms: _231  and  _232
REMARK   96  A    between atoms: _236  and  _238
REMARK   97  A    between atoms: _238  and  _239
REMARK   98  A    between atoms: _238  and  _241
REMARK   99  A    between atoms: _241  and  _242
REMARK  100  A    between atoms: _247  and  _249
REMARK  101  A    between atoms: _249  and  _250
REMARK  102  A    between atoms: _249  and  _252
REMARK  103  A    between atoms: _252  and  _253
REMARK  104  A    between atoms: _255  and  _257
REMARK  105  A    between atoms: _257  and  _258
REMARK  106  A    between atoms: _257  and  _260
REMARK  107  A    between atoms: _260  and  _261
REMARK  108  A    between atoms: _263  and  _265
REMARK  109  A    between atoms: _265  and  _266
REMARK  110  A    between atoms: _265  and  _268
REMARK  111  A    between atoms: _268  and  _269
REMARK  112  A    between atoms: _275  and  _277
REMARK  113  A    between atoms: _277  and  _278
REMARK  114  A    between atoms: _277  and  _280
REMARK  115  A    between atoms: _280  and  _281
REMARK  116  A    between atoms: _281  and  _282
REMARK  117  A    between atoms: _287  and  _289
REMARK  118  A    between atoms: _289  and  _290
REMARK  119  A    between atoms: _289  and  _292
REMARK  120  A    between atoms: _292  and  _293
REMARK  121  A    between atoms: _296  and  _298
REMARK  122  A    between atoms: _298  and  _299
REMARK  123  A    between atoms: _298  and  _301
REMARK  124  A    between atoms: _301  and  _302
REMARK  125  A    between atoms: _307  and  _309
REMARK  126  A    between atoms: _309  and  _310
REMARK  127  A    between atoms: _309  and  _312
REMARK  128  A    between atoms: _312  and  _313
REMARK  129  A    between atoms: _313  and  _314
REMARK  130  A    between atoms: _316  and  _318
REMARK  131  A    between atoms: _318  and  _319
REMARK  132  A    between atoms: _318  and  _321
REMARK  133  A    between atoms: _321  and  _322
REMARK  134  A    between atoms: _325  and  _327
REMARK  135  A    between atoms: _327  and  _328
REMARK  136  A    between atoms: _327  and  _330
REMARK  137  A    between atoms: _330  and  _331
REMARK  138  A    between atoms: _331  and  _332
REMARK  139  A    between atoms: _332  and  _333
REMARK  140  A    between atoms: _342  and  _344
REMARK  141  A    between atoms: _344  and  _345
REMARK  142  A    between atoms: _344  and  _347
REMARK  143  A    between atoms: _347  and  _348
REMARK  144  A    between atoms: _353  and  _354
REMARK  145  A    between atoms: _356  and  _358
REMARK  146  A    between atoms: _358  and  _359
REMARK  147  A    between atoms: _358  and  _365
REMARK  148  A    between atoms: _359  and  _360
REMARK  149  A    between atoms: _360  and  _361
REMARK  150  A    between atoms: _361  and  _362
REMARK  151  A    between atoms: _362  and  _363
REMARK  152  A    between atoms: _370  and  _372
REMARK  153  A    between atoms: _372  and  _373
REMARK  154  A    between atoms: _372  and  _375
REMARK  155  A    between atoms: _375  and  _376
REMARK  156  A    between atoms: _378  and  _380
REMARK  157  A    between atoms: _380  and  _381
REMARK  158  A    between atoms: _380  and  _383
REMARK  159  A    between atoms: _383  and  _384
REMARK  160  A    between atoms: _384  and  _385
REMARK  161  A    between atoms: _385  and  _386
REMARK  162  A    between atoms: _386  and  _387
REMARK  163  A    between atoms: _391  and  _393
REMARK  164  A    between atoms: _393  and  _394
REMARK  165  A    between atoms: _397  and  _399
REMARK  166  A    between atoms: _399  and  _400
REMARK  167  A    between atoms: _399  and  _402
REMARK  168  A    between atoms: _402  and  _403
REMARK  169  A    between atoms: _406  and  _408
REMARK  170  A    between atoms: _408  and  _409
REMARK  171  A    between atoms: _408  and  _411
REMARK  172  A    between atoms: _411  and  _412
REMARK  173  A    between atoms: _417  and  _419
REMARK  174  A    between atoms: _419  and  _420
REMARK  175  A    between atoms: _419  and  _422
REMARK  176  A    between atoms: _422  and  _423
REMARK  177  A    between atoms: _426  and  _428
REMARK  178  A    between atoms: _428  and  _429
REMARK  179  A    between atoms: _431  and  _433
REMARK  180  A    between atoms: _433  and  _434
REMARK  181  A    between atoms: _433  and  _436
REMARK  182  A    between atoms: _436  and  _437
REMARK  183  A    between atoms: _437  and  _438
REMARK  184  A    between atoms: _438  and  _439
REMARK  185  A    between atoms: _439  and  _440
REMARK  186  A    between atoms: _444  and  _446
REMARK  187  A    between atoms: _446  and  _447
REMARK  188  A    between atoms: _450  and  _452
REMARK  189  A    between atoms: _452  and  _453
REMARK  190  A    between atoms: _452  and  _455
REMARK  191  A    between atoms: _457  and  _459
REMARK  192  A    between atoms: _459  and  _460
REMARK  193  A    between atoms: _463  and  _465
REMARK  194  A    between atoms: _465  and  _466
REMARK  195  A    between atoms: _465  and  _468
REMARK  196  A    between atoms: _468  and  _469
REMARK  197  A    between atoms: _471  and  _473
REMARK  198  A    between atoms: _473  and  _474
REMARK  199  A    between atoms: _473  and  _476
REMARK  200  A    between atoms: _476  and  _477
REMARK  201  A    between atoms: _480  and  _482
REMARK  202  A    between atoms: _482  and  _483
REMARK  203  A    between atoms: _482  and  _485
REMARK  204  A    between atoms: _485  and  _486
REMARK  205  A    between atoms: _489  and  _491
REMARK  206  A    between atoms: _491  and  _492
REMARK  207  A    between atoms: _491  and  _494
REMARK  208  A    between atoms: _494  and  _495
REMARK  209  A    between atoms: _495  and  _496
REMARK  210  A    between atoms: _501  and  _503
REMARK  211  A    between atoms: _503  and  _504
REMARK  212  A    between atoms: _503  and  _506
REMARK  213  A    between atoms: _506  and  _507
REMARK  214  A    between atoms: _513  and  _515
REMARK  215  A    between atoms: _515  and  _516
REMARK  216  A    between atoms: _515  and  _518
REMARK  217  A    between atoms: _518  and  _519
REMARK  218  A    between atoms: _519  and  _520
REMARK  219  A    between atoms: _520  and  _521
REMARK  220  A    between atoms: _521  and  _522
REMARK  221  A    between atoms: _526  and  _528
REMARK  222  A    between atoms: _528  and  _529
REMARK  223  A    between atoms: _528  and  _531
REMARK  224  A    between atoms: _531  and  _532
REMARK  225  A    between atoms: _537  and  _539
REMARK  226  A    between atoms: _539  and  _540
REMARK  227  A    between atoms: _539  and  _542
REMARK  228  A    between atoms: _542  and  _543
REMARK  229  A    between atoms: _549  and  _551
REMARK  230  A    between atoms: _551  and  _552
REMARK  231  A    between atoms: _551  and  _554
REMARK  232  A    between atoms: _554  and  _555
REMARK  233  A    between atoms: _555  and  _556
REMARK  234  A    between atoms: _559  and  _561
REMARK  235  A    between atoms: _561  and  _562
REMARK  236  A    between atoms: _561  and  _564
REMARK  237  A    between atoms: _564  and  _565
REMARK  238  A    between atoms: _565  and  _566
REMARK  239  A    between atoms: _571  and  _573
REMARK  240  A    between atoms: _573  and  _574
REMARK  241  A    between atoms: _573  and  _576
REMARK  242  A    between atoms: _576  and  _577
REMARK  243  A    between atoms: _577  and  _578
REMARK  244  A    between atoms: _578  and  _579
REMARK  245  A    between atoms: _588  and  _590
REMARK  246  A    between atoms: _590  and  _591
REMARK                            x       y       z     vdW  Elec       q    Type
REMARK                         _______ _______ _______ _____ _____    ______ ____
ROOT
ATOM      1  O   HOH     1       4.292  23.781  52.168  0.00  0.00    +0.000 OA
ENDROOT
TORSDOF 0
REMARK  Name = ../refined-set-2016/2xpc/2xpc_pocket.pdb
REMARK  246 active torsions:
REMARK  status: ('A' for Active; 'I' for Inactive)
REMARK    1  A    between atoms: _1  and  _3
REMARK    2  A    between atoms: _3  and  _4
REMARK    3  A    between atoms: _3  and  _6
REMARK    4  A    between atoms: _6  and  _7
REMARK    5  A    between atoms: _10  and  _12
REMARK    6  A    between atoms: _12  and  _13
REMARK    7  A    between atoms: _12  and  _15
REMARK    8  A    between atoms: _15  and  _16
REMARK    9  A    between atoms: _19  and  _21
REMARK   10  A    between atoms: _21  and  _22
REMARK   11  A    between atoms: _24  and  _26
REMARK   12  A    between atoms: _26  and  _27
REMARK   13  A    between atoms: _26  and  _29
REMARK   14  A    between atoms: _29  and  _30
REMARK   15  A    between atoms: _33  and  _35
REMARK   16  A    between atoms: _35  and  _36
REMARK   17  A    between atoms: _38  and  _40
REMARK   18  A    between atoms: _40  and  _41
REMARK   19  A    between atoms: _40  and  _43
REMARK   20  A    between atoms: _43  and  _44
REMARK   21  A    between atoms: _47  and  _49
REMARK   22  A    between atoms: _49  and  _50
REMARK   23  A    between atoms: _49  and  _52
REMARK   24  A    between atoms: _52  and  _53
REMARK   25  A    between atoms: _56  and  _58
REMARK   26  A    between atoms: _58  and  _59
REMARK   27  A    between atoms: _61  and  _63
REMARK   28  A    between atoms: _63  and  _64
REMARK   29  A    between atoms: _63  and  _66
REMARK   30  A    between atoms: _66  and  _67
REMARK   31  A    between atoms: _67  and  _68
REMARK   32  A    between atoms: _70  and  _72
REMARK   33  A    between atoms: _72  and  _73
REMARK   34  A    between atoms: _72  and  _75
REMARK   35  A    between atoms: _75  and  _76
REMARK   36  A    between atoms: _79  and  _81
REMARK   37  A    between atoms: _81  and  _82
REMARK   38  A    between atoms: _81  and  _84
REMARK   39  A    between atoms: _84  and  _85
REMARK   40  A    between atoms: _88  and  _90
REMARK   41  A    between atoms: _90  and  _91
REMARK   42  A    between atoms: _90  and  _93
REMARK   43  A    between atoms: _93  and  _94
REMARK   44  A    between atoms: _94  and  _95
REMARK   45  A    between atoms: _95  and  _96
REMARK   46  A    between atoms: _106  and  _107
REMARK   47  A    between atoms: _113  and  _114
REMARK   48  A    between atoms: _119  and  _121
REMARK   49  A    between atoms: _121  and  _122
REMARK   50  A    between atoms: _121  and  _124
REMARK   51  A    between atoms: _124  and  _125
REMARK   52  A    between atoms: _130  and  _132
REMARK   53  A    between atoms: _132  and  _133
REMARK   54  A    between atoms: _135  and  _137
REMARK   55  A    between atoms: _137  and  _138
REMARK   56  A    between atoms: _137  and  _140
REMARK   57  A    between atoms: _140  and  _141
REMARK   58  A    between atoms: _143  and  _145
REMARK   59  A    between atoms: _145  and  _146
REMARK   60  A    between atoms: _145  and  _148
REMARK   61  A    between atoms: _148  and  _149
REMARK   62  A    between atoms: _152  and  _154
REMARK   63  A    between atoms: _154  and  _155
REMARK   64  A    between atoms: _154  and  _157
REMARK   65  A    between atoms: _157  and  _158
REMARK   66  A    between atoms: _163  and  _165
REMARK   67  A    between atoms: _165  and  _166
REMARK   68  A    between atoms: _169  and  _171
REMARK   69  A    between atoms: _171  and  _172
REMARK   70  A    between atoms: _171  and  _174
REMARK   71  A    between atoms: _174  and  _175
REMARK   72  A    between atoms: _178  and  _179
REMARK   73  A    between atoms: _184  and  _186
REMARK   74  A    between atoms: _186  and  _187
REMARK   75  A    between atoms: _189  and  _191
REMARK   76  A    between atoms: _191  and  _192
REMARK   77  A    between atoms: _191  and  _194
REMARK   78  A    between atoms: _194  and  _195
REMARK   79  A    between atoms: _198  and  _200
REMARK   80  A    between atoms: _200  and  _201
REMARK   81  A    between atoms: _204  and  _206
REMARK   82  A    between atoms: _206  and  _207
REMARK   83  A    between atoms: _206  and  _209
REMARK   84  A    between atoms: _209  and  _210
REMARK   85  A    between atoms: _215  and  _217
REMARK   86  A    between atoms: _217  and  _218
REMARK   87  A    between atoms: _217  and  _220
REMARK   88  A    between atoms: _220  and  _221
REMARK   89  A    between atoms: _223  and  _225
REMARK   90  A    between atoms: _225  and  _226
REMARK   91  A    between atoms: _225  and  _228
REMARK   92  A    between atoms: _228  and  _229
REMARK   93  A    between atoms: _229  and  _230
REMARK   94  A    between atoms: _230  and  _231
REMARK   95  A    between atoms: _231  and  _232
REMARK   96  A    between atoms: _236  and  _238
REMARK   97  A    between atoms: _238  and  _239
REMARK   98  A    between atoms: _238  and  _241
REMARK   99  A    between atoms: _241  and  _242
REMARK  100  A    between atoms: _247  and  _249
REMARK  101  A    between atoms: _249  and  _250
REMARK  102  A    between atoms: _249  and  _252
REMARK  103  A    between atoms: _252  and  _253
REMARK  104  A    between atoms: _255  and  _257
REMARK  105  A    between atoms: _257  and  _258
REMARK  106  A    between atoms: _257  and  _260
REMARK  107  A    between atoms: _260  and  _261
REMARK  108  A    between atoms: _263  and  _265
REMARK  109  A    between atoms: _265  and  _266
REMARK  110  A    between atoms: _265  and  _268
REMARK  111  A    between atoms: _268  and  _269
REMARK  112  A    between atoms: _275  and  _277
REMARK  113  A    between atoms: _277  and  _278
REMARK  114  A    between atoms: _277  and  _280
REMARK  115  A    between atoms: _280  and  _281
REMARK  116  A    between atoms: _281  and  _282
REMARK  117  A    between atoms: _287  and  _289
REMARK  118  A    between atoms: _289  and  _290
REMARK  119  A    between atoms: _289  and  _292
REMARK  120  A    between atoms: _292  and  _293
REMARK  121  A    between atoms: _296  and  _298
REMARK  122  A    between atoms: _298  and  _299
REMARK  123  A    between atoms: _298  and  _301
REMARK  124  A    between atoms: _301  and  _302
REMARK  125  A    between atoms: _307  and  _309
REMARK  126  A    between atoms: _309  and  _310
REMARK  127  A    between atoms: _309  and  _312
REMARK  128  A    between atoms: _312  and  _313
REMARK  129  A    between atoms: _313  and  _314
REMARK  130  A    between atoms: _316  and  _318
REMARK  131  A    between atoms: _318  and  _319
REMARK  132  A    between atoms: _318  and  _321
REMARK  133  A    between atoms: _321  and  _322
REMARK  134  A    between atoms: _325  and  _327
REMARK  135  A    between atoms: _327  and  _328
REMARK  136  A    between atoms: _327  and  _330
REMARK  137  A    between atoms: _330  and  _331
REMARK  138  A    between atoms: _331  and  _332
REMARK  139  A    between atoms: _332  and  _333
REMARK  140  A    between atoms: _342  and  _344
REMARK  141  A    between atoms: _344  and  _345
REMARK  142  A    between atoms: _344  and  _347
REMARK  143  A    between atoms: _347  and  _348
REMARK  144  A    between atoms: _353  and  _354
REMARK  145  A    between atoms: _356  and  _358
REMARK  146  A    between atoms: _358  and  _359
REMARK  147  A    between atoms: _358  and  _365
REMARK  148  A    between atoms: _359  and  _360
REMARK  149  A    between atoms: _360  and  _361
REMARK  150  A    between atoms: _361  and  _362
REMARK  151  A    between atoms: _362  and  _363
REMARK  152  A    between atoms: _370  and  _372
REMARK  153  A    between atoms: _372  and  _373
REMARK  154  A    between atoms: _372  and  _375
REMARK  155  A    between atoms: _375  and  _376
REMARK  156  A    between atoms: _378  and  _380
REMARK  157  A    between atoms: _380  and  _381
REMARK  158  A    between atoms: _380  and  _383
REMARK  159  A    between atoms: _383  and  _384
REMARK  160  A    between atoms: _384  and  _385
REMARK  161  A    between atoms: _385  and  _386
REMARK  162  A    between atoms: _386  and  _387
REMARK  163  A    between atoms: _391  and  _393
REMARK  164  A    between atoms: _393  and  _394
REMARK  165  A    between atoms: _397  and  _399
REMARK  166  A    between atoms: _399  and  _400
REMARK  167  A    between atoms: _399  and  _402
REMARK  168  A    between atoms: _402  and  _403
REMARK  169  A    between atoms: _406  and  _408
REMARK  170  A    between atoms: _408  and  _409
REMARK  171  A    between atoms: _408  and  _411
REMARK  172  A    between atoms: _411  and  _412
REMARK  173  A    between atoms: _417  and  _419
REMARK  174  A    between atoms: _419  and  _420
REMARK  175  A    between atoms: _419  and  _422
REMARK  176  A    between atoms: _422  and  _423
REMARK  177  A    between atoms: _426  and  _428
REMARK  178  A    between atoms: _428  and  _429
REMARK  179  A    between atoms: _431  and  _433
REMARK  180  A    between atoms: _433  and  _434
REMARK  181  A    between atoms: _433  and  _436
REMARK  182  A    between atoms: _436  and  _437
REMARK  183  A    between atoms: _437  and  _438
REMARK  184  A    between atoms: _438  and  _439
REMARK  185  A    between atoms: _439  and  _440
REMARK  186  A    between atoms: _444  and  _446
REMARK  187  A    between atoms: _446  and  _447
REMARK  188  A    between atoms: _450  and  _452
REMARK  189  A    between atoms: _452  and  _453
REMARK  190  A    between atoms: _452  and  _455
REMARK  191  A    between atoms: _457  and  _459
REMARK  192  A    between atoms: _459  and  _460
REMARK  193  A    between atoms: _463  and  _465
REMARK  194  A    between atoms: _465  and  _466
REMARK  195  A    between atoms: _465  and  _468
REMARK  196  A    between atoms: _468  and  _469
REMARK  197  A    between atoms: _471  and  _473
REMARK  198  A    between atoms: _473  and  _474
REMARK  199  A    between atoms: _473  and  _476
REMARK  200  A    between atoms: _476  and  _477
REMARK  201  A    between atoms: _480  and  _482
REMARK  202  A    between atoms: _482  and  _483
REMARK  203  A    between atoms: _482  and  _485
REMARK  204  A    between atoms: _485  and  _486
REMARK  205  A    between atoms: _489  and  _491
REMARK  206  A    between atoms: _491  and  _492
REMARK  207  A    between atoms: _491  and  _494
REMARK  208  A    between atoms: _494  and  _495
REMARK  209  A    between atoms: _495  and  _496
REMARK  210  A    between atoms: _501  and  _503
REMARK  211  A    between atoms: _503  and  _504
REMARK  212  A    between atoms: _503  and  _506
REMARK  213  A    between atoms: _506  and  _507
REMARK  214  A    between atoms: _513  and  _515
REMARK  215  A    between atoms: _515  and  _516
REMARK  216  A    between atoms: _515  and  _518
REMARK  217  A    between atoms: _518  and  _519
REMARK  218  A    between atoms: _519  and  _520
REMARK  219  A    between atoms: _520  and  _521
REMARK  220  A    between atoms: _521  and  _522
REMARK  221  A    between atoms: _526  and  _528
REMARK  222  A    between atoms: _528  and  _529
REMARK  223  A    between atoms: _528  and  _531
REMARK  224  A    between atoms: _531  and  _532
REMARK  225  A    between atoms: _537  and  _539
REMARK  226  A    between atoms: _539  and  _540
REMARK  227  A    between atoms: _539  and  _542
REMARK  228  A    between atoms: _542  and  _543
REMARK  229  A    between atoms: _549  and  _551
REMARK  230  A    between atoms: _551  and  _552
REMARK  231  A    between atoms: _551  and  _554
REMARK  232  A    between atoms: _554  and  _555
REMARK  233  A    between atoms: _555  and  _556
REMARK  234  A    between atoms: _559  and  _561
REMARK  235  A    between atoms: _561  and  _562
REMARK  236  A    between atoms: _561  and  _564
REMARK  237  A    between atoms: _564  and  _565
REMARK  238  A    between atoms: _565  and  _566
REMARK  239  A    between atoms: _571  and  _573
REMARK  240  A    between atoms: _573  and  _574
REMARK  241  A    between atoms: _573  and  _576
REMARK  242  A    between atoms: _576  and  _577
REMARK  243  A    between atoms: _577  and  _578
REMARK  244  A    between atoms: _578  and  _579
REMARK  245  A    between atoms: _588  and  _590
REMARK  246  A    between atoms: _590  and  _591
REMARK                            x       y       z     vdW  Elec       q    Type
REMARK                         _______ _______ _______ _____ _____    ______ ____
ROOT
ATOM      1  O   HOH     1       1.315  23.638  52.958  0.00  0.00    +0.000 OA
ENDROOT
TORSDOF 0
REMARK  Name = ../refined-set-2016/2xpc/2xpc_pocket.pdb
REMARK  246 active torsions:
REMARK  status: ('A' for Active; 'I' for Inactive)
REMARK    1  A    between atoms: _1  and  _3
REMARK    2  A    between atoms: _3  and  _4
REMARK    3  A    between atoms: _3  and  _6
REMARK    4  A    between atoms: _6  and  _7
REMARK    5  A    between atoms: _10  and  _12
REMARK    6  A    between atoms: _12  and  _13
REMARK    7  A    between atoms: _12  and  _15
REMARK    8  A    between atoms: _15  and  _16
REMARK    9  A    between atoms: _19  and  _21
REMARK   10  A    between atoms: _21  and  _22
REMARK   11  A    between atoms: _24  and  _26
REMARK   12  A    between atoms: _26  and  _27
REMARK   13  A    between atoms: _26  and  _29
REMARK   14  A    between atoms: _29  and  _30
REMARK   15  A    between atoms: _33  and  _35
REMARK   16  A    between atoms: _35  and  _36
REMARK   17  A    between atoms: _38  and  _40
REMARK   18  A    between atoms: _40  and  _41
REMARK   19  A    between atoms: _40  and  _43
REMARK   20  A    between atoms: _43  and  _44
REMARK   21  A    between atoms: _47  and  _49
REMARK   22  A    between atoms: _49  and  _50
REMARK   23  A    between atoms: _49  and  _52
REMARK   24  A    between atoms: _52  and  _53
REMARK   25  A    between atoms: _56  and  _58
REMARK   26  A    between atoms: _58  and  _59
REMARK   27  A    between atoms: _61  and  _63
REMARK   28  A    between atoms: _63  and  _64
REMARK   29  A    between atoms: _63  and  _66
REMARK   30  A    between atoms: _66  and  _67
REMARK   31  A    between atoms: _67  and  _68
REMARK   32  A    between atoms: _70  and  _72
REMARK   33  A    between atoms: _72  and  _73
REMARK   34  A    between atoms: _72  and  _75
REMARK   35  A    between atoms: _75  and  _76
REMARK   36  A    between atoms: _79  and  _81
REMARK   37  A    between atoms: _81  and  _82
REMARK   38  A    between atoms: _81  and  _84
REMARK   39  A    between atoms: _84  and  _85
REMARK   40  A    between atoms: _88  and  _90
REMARK   41  A    between atoms: _90  and  _91
REMARK   42  A    between atoms: _90  and  _93
REMARK   43  A    between atoms: _93  and  _94
REMARK   44  A    between atoms: _94  and  _95
REMARK   45  A    between atoms: _95  and  _96
REMARK   46  A    between atoms: _106  and  _107
REMARK   47  A    between atoms: _113  and  _114
REMARK   48  A    between atoms: _119  and  _121
REMARK   49  A    between atoms: _121  and  _122
REMARK   50  A    between atoms: _121  and  _124
REMARK   51  A    between atoms: _124  and  _125
REMARK   52  A    between atoms: _130  and  _132
REMARK   53  A    between atoms: _132  and  _133
REMARK   54  A    between atoms: _135  and  _137
REMARK   55  A    between atoms: _137  and  _138
REMARK   56  A    between atoms: _137  and  _140
REMARK   57  A    between atoms: _140  and  _141
REMARK   58  A    between atoms: _143  and  _145
REMARK   59  A    between atoms: _145  and  _146
REMARK   60  A    between atoms: _145  and  _148
REMARK   61  A    between atoms: _148  and  _149
REMARK   62  A    between atoms: _152  and  _154
REMARK   63  A    between atoms: _154  and  _155
REMARK   64  A    between atoms: _154  and  _157
REMARK   65  A    between atoms: _157  and  _158
REMARK   66  A    between atoms: _163  and  _165
REMARK   67  A    between atoms: _165  and  _166
REMARK   68  A    between atoms: _169  and  _171
REMARK   69  A    between atoms: _171  and  _172
REMARK   70  A    between atoms: _171  and  _174
REMARK   71  A    between atoms: _174  and  _175
REMARK   72  A    between atoms: _178  and  _179
REMARK   73  A    between atoms: _184  and  _186
REMARK   74  A    between atoms: _186  and  _187
REMARK   75  A    between atoms: _189  and  _191
REMARK   76  A    between atoms: _191  and  _192
REMARK   77  A    between atoms: _191  and  _194
REMARK   78  A    between atoms: _194  and  _195
REMARK   79  A    between atoms: _198  and  _200
REMARK   80  A    between atoms: _200  and  _201
REMARK   81  A    between atoms: _204  and  _206
REMARK   82  A    between atoms: _206  and  _207
REMARK   83  A    between atoms: _206  and  _209
REMARK   84  A    between atoms: _209  and  _210
REMARK   85  A    between atoms: _215  and  _217
REMARK   86  A    between atoms: _217  and  _218
REMARK   87  A    between atoms: _217  and  _220
REMARK   88  A    between atoms: _220  and  _221
REMARK   89  A    between atoms: _223  and  _225
REMARK   90  A    between atoms: _225  and  _226
REMARK   91  A    between atoms: _225  and  _228
REMARK   92  A    between atoms: _228  and  _229
REMARK   93  A    between atoms: _229  and  _230
REMARK   94  A    between atoms: _230  and  _231
REMARK   95  A    between atoms: _231  and  _232
REMARK   96  A    between atoms: _236  and  _238
REMARK   97  A    between atoms: _238  and  _239
REMARK   98  A    between atoms: _238  and  _241
REMARK   99  A    between atoms: _241  and  _242
REMARK  100  A    between atoms: _247  and  _249
REMARK  101  A    between atoms: _249  and  _250
REMARK  102  A    between atoms: _249  and  _252
REMARK  103  A    between atoms: _252  and  _253
REMARK  104  A    between atoms: _255  and  _257
REMARK  105  A    between atoms: _257  and  _258
REMARK  106  A    between atoms: _257  and  _260
REMARK  107  A    between atoms: _260  and  _261
REMARK  108  A    between atoms: _263  and  _265
REMARK  109  A    between atoms: _265  and  _266
REMARK  110  A    between atoms: _265  and  _268
REMARK  111  A    between atoms: _268  and  _269
REMARK  112  A    between atoms: _275  and  _277
REMARK  113  A    between atoms: _277  and  _278
REMARK  114  A    between atoms: _277  and  _280
REMARK  115  A    between atoms: _280  and  _281
REMARK  116  A    between atoms: _281  and  _282
REMARK  117  A    between atoms: _287  and  _289
REMARK  118  A    between atoms: _289  and  _290
REMARK  119  A    between atoms: _289  and  _292
REMARK  120  A    between atoms: _292  and  _293
REMARK  121  A    between atoms: _296  and  _298
REMARK  122  A    between atoms: _298  and  _299
REMARK  123  A    between atoms: _298  and  _301
REMARK  124  A    between atoms: _301  and  _302
REMARK  125  A    between atoms: _307  and  _309
REMARK  126  A    between atoms: _309  and  _310
REMARK  127  A    between atoms: _309  and  _312
REMARK  128  A    between atoms: _312  and  _313
REMARK  129  A    between atoms: _313  and  _314
REMARK  130  A    between atoms: _316  and  _318
REMARK  131  A    between atoms: _318  and  _319
REMARK  132  A    between atoms: _318  and  _321
REMARK  133  A    between atoms: _321  and  _322
REMARK  134  A    between atoms: _325  and  _327
REMARK  135  A    between atoms: _327  and  _328
REMARK  136  A    between atoms: _327  and  _330
REMARK  137  A    between atoms: _330  and  _331
REMARK  138  A    between atoms: _331  and  _332
REMARK  139  A    between atoms: _332  and  _333
REMARK  140  A    between atoms: _342  and  _344
REMARK  141  A    between atoms: _344  and  _345
REMARK  142  A    between atoms: _344  and  _347
REMARK  143  A    between atoms: _347  and  _348
REMARK  144  A    between atoms: _353  and  _354
REMARK  145  A    between atoms: _356  and  _358
REMARK  146  A    between atoms: _358  and  _359
REMARK  147  A    between atoms: _358  and  _365
REMARK  148  A    between atoms: _359  and  _360
REMARK  149  A    between atoms: _360  and  _361
REMARK  150  A    between atoms: _361  and  _362
REMARK  151  A    between atoms: _362  and  _363
REMARK  152  A    between atoms: _370  and  _372
REMARK  153  A    between atoms: _372  and  _373
REMARK  154  A    between atoms: _372  and  _375
REMARK  155  A    between atoms: _375  and  _376
REMARK  156  A    between atoms: _378  and  _380
REMARK  157  A    between atoms: _380  and  _381
REMARK  158  A    between atoms: _380  and  _383
REMARK  159  A    between atoms: _383  and  _384
REMARK  160  A    between atoms: _384  and  _385
REMARK  161  A    between atoms: _385  and  _386
REMARK  162  A    between atoms: _386  and  _387
REMARK  163  A    between atoms: _391  and  _393
REMARK  164  A    between atoms: _393  and  _394
REMARK  165  A    between atoms: _397  and  _399
REMARK  166  A    between atoms: _399  and  _400
REMARK  167  A    between atoms: _399  and  _402
REMARK  168  A    between atoms: _402  and  _403
REMARK  169  A    between atoms: _406  and  _408
REMARK  170  A    between atoms: _408  and  _409
REMARK  171  A    between atoms: _408  and  _411
REMARK  172  A    between atoms: _411  and  _412
REMARK  173  A    between atoms: _417  and  _419
REMARK  174  A    between atoms: _419  and  _420
REMARK  175  A    between atoms: _419  and  _422
REMARK  176  A    between atoms: _422  and  _423
REMARK  177  A    between atoms: _426  and  _428
REMARK  178  A    between atoms: _428  and  _429
REMARK  179  A    between atoms: _431  and  _433
REMARK  180  A    between atoms: _433  and  _434
REMARK  181  A    between atoms: _433  and  _436
REMARK  182  A    between atoms: _436  and  _437
REMARK  183  A    between atoms: _437  and  _438
REMARK  184  A    between atoms: _438  and  _439
REMARK  185  A    between atoms: _439  and  _440
REMARK  186  A    between atoms: _444  and  _446
REMARK  187  A    between atoms: _446  and  _447
REMARK  188  A    between atoms: _450  and  _452
REMARK  189  A    between atoms: _452  and  _453
REMARK  190  A    between atoms: _452  and  _455
REMARK  191  A    between atoms: _457  and  _459
REMARK  192  A    between atoms: _459  and  _460
REMARK  193  A    between atoms: _463  and  _465
REMARK  194  A    between atoms: _465  and  _466
REMARK  195  A    between atoms: _465  and  _468
REMARK  196  A    between atoms: _468  and  _469
REMARK  197  A    between atoms: _471  and  _473
REMARK  198  A    between atoms: _473  and  _474
REMARK  199  A    between atoms: _473  and  _476
REMARK  200  A    between atoms: _476  and  _477
REMARK  201  A    between atoms: _480  and  _482
REMARK  202  A    between atoms: _482  and  _483
REMARK  203  A    between atoms: _482  and  _485
REMARK  204  A    between atoms: _485  and  _486
REMARK  205  A    between atoms: _489  and  _491
REMARK  206  A    between atoms: _491  and  _492
REMARK  207  A    between atoms: _491  and  _494
REMARK  208  A    between atoms: _494  and  _495
REMARK  209  A    between atoms: _495  and  _496
REMARK  210  A    between atoms: _501  and  _503
REMARK  211  A    between atoms: _503  and  _504
REMARK  212  A    between atoms: _503  and  _506
REMARK  213  A    between atoms: _506  and  _507
REMARK  214  A    between atoms: _513  and  _515
REMARK  215  A    between atoms: _515  and  _516
REMARK  216  A    between atoms: _515  and  _518
REMARK  217  A    between atoms: _518  and  _519
REMARK  218  A    between atoms: _519  and  _520
REMARK  219  A    between atoms: _520  and  _521
REMARK  220  A    between atoms: _521  and  _522
REMARK  221  A    between atoms: _526  and  _528
REMARK  222  A    between atoms: _528  and  _529
REMARK  223  A    between atoms: _528  and  _531
REMARK  224  A    between atoms: _531  and  _532
REMARK  225  A    between atoms: _537  and  _539
REMARK  226  A    between atoms: _539  and  _540
REMARK  227  A    between atoms: _539  and  _542
REMARK  228  A    between atoms: _542  and  _543
REMARK  229  A    between atoms: _549  and  _551
REMARK  230  A    between atoms: _551  and  _552
REMARK  231  A    between atoms: _551  and  _554
REMARK  232  A    between atoms: _554  and  _555
REMARK  233  A    between atoms: _555  and  _556
REMARK  234  A    between atoms: _559  and  _561
REMARK  235  A    between atoms: _561  and  _562
REMARK  236  A    between atoms: _561  and  _564
REMARK  237  A    between atoms: _564  and  _565
REMARK  238  A    between atoms: _565  and  _566
REMARK  239  A    between atoms: _571  and  _573
REMARK  240  A    between atoms: _573  and  _574
REMARK  241  A    between atoms: _573  and  _576
REMARK  242  A    between atoms: _576  and  _577
REMARK  243  A    between atoms: _577  and  _578
REMARK  244  A    between atoms: _578  and  _579
REMARK  245  A    between atoms: _588  and  _590
REMARK  246  A    between atoms: _590  and  _591
REMARK                            x       y       z     vdW  Elec       q    Type
REMARK                         _______ _______ _______ _____ _____    ______ ____
ROOT
ATOM      1  O   HOH     1       5.759  25.525  53.301  0.00  0.00    +0.000 OA
ENDROOT
TORSDOF 0
REMARK  Name = ../refined-set-2016/2xpc/2xpc_pocket.pdb
REMARK  246 active torsions:
REMARK  status: ('A' for Active; 'I' for Inactive)
REMARK    1  A    between atoms: _1  and  _3
REMARK    2  A    between atoms: _3  and  _4
REMARK    3  A    between atoms: _3  and  _6
REMARK    4  A    between atoms: _6  and  _7
REMARK    5  A    between atoms: _10  and  _12
REMARK    6  A    between atoms: _12  and  _13
REMARK    7  A    between atoms: _12  and  _15
REMARK    8  A    between atoms: _15  and  _16
REMARK    9  A    between atoms: _19  and  _21
REMARK   10  A    between atoms: _21  and  _22
REMARK   11  A    between atoms: _24  and  _26
REMARK   12  A    between atoms: _26  and  _27
REMARK   13  A    between atoms: _26  and  _29
REMARK   14  A    between atoms: _29  and  _30
REMARK   15  A    between atoms: _33  and  _35
REMARK   16  A    between atoms: _35  and  _36
REMARK   17  A    between atoms: _38  and  _40
REMARK   18  A    between atoms: _40  and  _41
REMARK   19  A    between atoms: _40  and  _43
REMARK   20  A    between atoms: _43  and  _44
REMARK   21  A    between atoms: _47  and  _49
REMARK   22  A    between atoms: _49  and  _50
REMARK   23  A    between atoms: _49  and  _52
REMARK   24  A    between atoms: _52  and  _53
REMARK   25  A    between atoms: _56  and  _58
REMARK   26  A    between atoms: _58  and  _59
REMARK   27  A    between atoms: _61  and  _63
REMARK   28  A    between atoms: _63  and  _64
REMARK   29  A    between atoms: _63  and  _66
REMARK   30  A    between atoms: _66  and  _67
REMARK   31  A    between atoms: _67  and  _68
REMARK   32  A    between atoms: _70  and  _72
REMARK   33  A    between atoms: _72  and  _73
REMARK   34  A    between atoms: _72  and  _75
REMARK   35  A    between atoms: _75  and  _76
REMARK   36  A    between atoms: _79  and  _81
REMARK   37  A    between atoms: _81  and  _82
REMARK   38  A    between atoms: _81  and  _84
REMARK   39  A    between atoms: _84  and  _85
REMARK   40  A    between atoms: _88  and  _90
REMARK   41  A    between atoms: _90  and  _91
REMARK   42  A    between atoms: _90  and  _93
REMARK   43  A    between atoms: _93  and  _94
REMARK   44  A    between atoms: _94  and  _95
REMARK   45  A    between atoms: _95  and  _96
REMARK   46  A    between atoms: _106  and  _107
REMARK   47  A    between atoms: _113  and  _114
REMARK   48  A    between atoms: _119  and  _121
REMARK   49  A    between atoms: _121  and  _122
REMARK   50  A    between atoms: _121  and  _124
REMARK   51  A    between atoms: _124  and  _125
REMARK   52  A    between atoms: _130  and  _132
REMARK   53  A    between atoms: _132  and  _133
REMARK   54  A    between atoms: _135  and  _137
REMARK   55  A    between atoms: _137  and  _138
REMARK   56  A    between atoms: _137  and  _140
REMARK   57  A    between atoms: _140  and  _141
REMARK   58  A    between atoms: _143  and  _145
REMARK   59  A    between atoms: _145  and  _146
REMARK   60  A    between atoms: _145  and  _148
REMARK   61  A    between atoms: _148  and  _149
REMARK   62  A    between atoms: _152  and  _154
REMARK   63  A    between atoms: _154  and  _155
REMARK   64  A    between atoms: _154  and  _157
REMARK   65  A    between atoms: _157  and  _158
REMARK   66  A    between atoms: _163  and  _165
REMARK   67  A    between atoms: _165  and  _166
REMARK   68  A    between atoms: _169  and  _171
REMARK   69  A    between atoms: _171  and  _172
REMARK   70  A    between atoms: _171  and  _174
REMARK   71  A    between atoms: _174  and  _175
REMARK   72  A    between atoms: _178  and  _179
REMARK   73  A    between atoms: _184  and  _186
REMARK   74  A    between atoms: _186  and  _187
REMARK   75  A    between atoms: _189  and  _191
REMARK   76  A    between atoms: _191  and  _192
REMARK   77  A    between atoms: _191  and  _194
REMARK   78  A    between atoms: _194  and  _195
REMARK   79  A    between atoms: _198  and  _200
REMARK   80  A    between atoms: _200  and  _201
REMARK   81  A    between atoms: _204  and  _206
REMARK   82  A    between atoms: _206  and  _207
REMARK   83  A    between atoms: _206  and  _209
REMARK   84  A    between atoms: _209  and  _210
REMARK   85  A    between atoms: _215  and  _217
REMARK   86  A    between atoms: _217  and  _218
REMARK   87  A    between atoms: _217  and  _220
REMARK   88  A    between atoms: _220  and  _221
REMARK   89  A    between atoms: _223  and  _225
REMARK   90  A    between atoms: _225  and  _226
REMARK   91  A    between atoms: _225  and  _228
REMARK   92  A    between atoms: _228  and  _229
REMARK   93  A    between atoms: _229  and  _230
REMARK   94  A    between atoms: _230  and  _231
REMARK   95  A    between atoms: _231  and  _232
REMARK   96  A    between atoms: _236  and  _238
REMARK   97  A    between atoms: _238  and  _239
REMARK   98  A    between atoms: _238  and  _241
REMARK   99  A    between atoms: _241  and  _242
REMARK  100  A    between atoms: _247  and  _249
REMARK  101  A    between atoms: _249  and  _250
REMARK  102  A    between atoms: _249  and  _252
REMARK  103  A    between atoms: _252  and  _253
REMARK  104  A    between atoms: _255  and  _257
REMARK  105  A    between atoms: _257  and  _258
REMARK  106  A    between atoms: _257  and  _260
REMARK  107  A    between atoms: _260  and  _261
REMARK  108  A    between atoms: _263  and  _265
REMARK  109  A    between atoms: _265  and  _266
REMARK  110  A    between atoms: _265  and  _268
REMARK  111  A    between atoms: _268  and  _269
REMARK  112  A    between atoms: _275  and  _277
REMARK  113  A    between atoms: _277  and  _278
REMARK  114  A    between atoms: _277  and  _280
REMARK  115  A    between atoms: _280  and  _281
REMARK  116  A    between atoms: _281  and  _282
REMARK  117  A    between atoms: _287  and  _289
REMARK  118  A    between atoms: _289  and  _290
REMARK  119  A    between atoms: _289  and  _292
REMARK  120  A    between atoms: _292  and  _293
REMARK  121  A    between atoms: _296  and  _298
REMARK  122  A    between atoms: _298  and  _299
REMARK  123  A    between atoms: _298  and  _301
REMARK  124  A    between atoms: _301  and  _302
REMARK  125  A    between atoms: _307  and  _309
REMARK  126  A    between atoms: _309  and  _310
REMARK  127  A    between atoms: _309  and  _312
REMARK  128  A    between atoms: _312  and  _313
REMARK  129  A    between atoms: _313  and  _314
REMARK  130  A    between atoms: _316  and  _318
REMARK  131  A    between atoms: _318  and  _319
REMARK  132  A    between atoms: _318  and  _321
REMARK  133  A    between atoms: _321  and  _322
REMARK  134  A    between atoms: _325  and  _327
REMARK  135  A    between atoms: _327  and  _328
REMARK  136  A    between atoms: _327  and  _330
REMARK  137  A    between atoms: _330  and  _331
REMARK  138  A    between atoms: _331  and  _332
REMARK  139  A    between atoms: _332  and  _333
REMARK  140  A    between atoms: _342  and  _344
REMARK  141  A    between atoms: _344  and  _345
REMARK  142  A    between atoms: _344  and  _347
REMARK  143  A    between atoms: _347  and  _348
REMARK  144  A    between atoms: _353  and  _354
REMARK  145  A    between atoms: _356  and  _358
REMARK  146  A    between atoms: _358  and  _359
REMARK  147  A    between atoms: _358  and  _365
REMARK  148  A    between atoms: _359  and  _360
REMARK  149  A    between atoms: _360  and  _361
REMARK  150  A    between atoms: _361  and  _362
REMARK  151  A    between atoms: _362  and  _363
REMARK  152  A    between atoms: _370  and  _372
REMARK  153  A    between atoms: _372  and  _373
REMARK  154  A    between atoms: _372  and  _375
REMARK  155  A    between atoms: _375  and  _376
REMARK  156  A    between atoms: _378  and  _380
REMARK  157  A    between atoms: _380  and  _381
REMARK  158  A    between atoms: _380  and  _383
REMARK  159  A    between atoms: _383  and  _384
REMARK  160  A    between atoms: _384  and  _385
REMARK  161  A    between atoms: _385  and  _386
REMARK  162  A    between atoms: _386  and  _387
REMARK  163  A    between atoms: _391  and  _393
REMARK  164  A    between atoms: _393  and  _394
REMARK  165  A    between atoms: _397  and  _399
REMARK  166  A    between atoms: _399  and  _400
REMARK  167  A    between atoms: _399  and  _402
REMARK  168  A    between atoms: _402  and  _403
REMARK  169  A    between atoms: _406  and  _408
REMARK  170  A    between atoms: _408  and  _409
REMARK  171  A    between atoms: _408  and  _411
REMARK  172  A    between atoms: _411  and  _412
REMARK  173  A    between atoms: _417  and  _419
REMARK  174  A    between atoms: _419  and  _420
REMARK  175  A    between atoms: _419  and  _422
REMARK  176  A    between atoms: _422  and  _423
REMARK  177  A    between atoms: _426  and  _428
REMARK  178  A    between atoms: _428  and  _429
REMARK  179  A    between atoms: _431  and  _433
REMARK  180  A    between atoms: _433  and  _434
REMARK  181  A    between atoms: _433  and  _436
REMARK  182  A    between atoms: _436  and  _437
REMARK  183  A    between atoms: _437  and  _438
REMARK  184  A    between atoms: _438  and  _439
REMARK  185  A    between atoms: _439  and  _440
REMARK  186  A    between atoms: _444  and  _446
REMARK  187  A    between atoms: _446  and  _447
REMARK  188  A    between atoms: _450  and  _452
REMARK  189  A    between atoms: _452  and  _453
REMARK  190  A    between atoms: _452  and  _455
REMARK  191  A    between atoms: _457  and  _459
REMARK  192  A    between atoms: _459  and  _460
REMARK  193  A    between atoms: _463  and  _465
REMARK  194  A    between atoms: _465  and  _466
REMARK  195  A    between atoms: _465  and  _468
REMARK  196  A    between atoms: _468  and  _469
REMARK  197  A    between atoms: _471  and  _473
REMARK  198  A    between atoms: _473  and  _474
REMARK  199  A    between atoms: _473  and  _476
REMARK  200  A    between atoms: _476  and  _477
REMARK  201  A    between atoms: _480  and  _482
REMARK  202  A    between atoms: _482  and  _483
REMARK  203  A    between atoms: _482  and  _485
REMARK  204  A    between atoms: _485  and  _486
REMARK  205  A    between atoms: _489  and  _491
REMARK  206  A    between atoms: _491  and  _492
REMARK  207  A    between atoms: _491  and  _494
REMARK  208  A    between atoms: _494  and  _495
REMARK  209  A    between atoms: _495  and  _496
REMARK  210  A    between atoms: _501  and  _503
REMARK  211  A    between atoms: _503  and  _504
REMARK  212  A    between atoms: _503  and  _506
REMARK  213  A    between atoms: _506  and  _507
REMARK  214  A    between atoms: _513  and  _515
REMARK  215  A    between atoms: _515  and  _516
REMARK  216  A    between atoms: _515  and  _518
REMARK  217  A    between atoms: _518  and  _519
REMARK  218  A    between atoms: _519  and  _520
REMARK  219  A    between atoms: _520  and  _521
REMARK  220  A    between atoms: _521  and  _522
REMARK  221  A    between atoms: _526  and  _528
REMARK  222  A    between atoms: _528  and  _529
REMARK  223  A    between atoms: _528  and  _531
REMARK  224  A    between atoms: _531  and  _532
REMARK  225  A    between atoms: _537  and  _539
REMARK  226  A    between atoms: _539  and  _540
REMARK  227  A    between atoms: _539  and  _542
REMARK  228  A    between atoms: _542  and  _543
REMARK  229  A    between atoms: _549  and  _551
REMARK  230  A    between atoms: _551  and  _552
REMARK  231  A    between atoms: _551  and  _554
REMARK  232  A    between atoms: _554  and  _555
REMARK  233  A    between atoms: _555  and  _556
REMARK  234  A    between atoms: _559  and  _561
REMARK  235  A    between atoms: _561  and  _562
REMARK  236  A    between atoms: _561  and  _564
REMARK  237  A    between atoms: _564  and  _565
REMARK  238  A    between atoms: _565  and  _566
REMARK  239  A    between atoms: _571  and  _573
REMARK  240  A    between atoms: _573  and  _574
REMARK  241  A    between atoms: _573  and  _576
REMARK  242  A    between atoms: _576  and  _577
REMARK  243  A    between atoms: _577  and  _578
REMARK  244  A    between atoms: _578  and  _579
REMARK  245  A    between atoms: _588  and  _590
REMARK  246  A    between atoms: _590  and  _591
REMARK                            x       y       z     vdW  Elec       q    Type
REMARK                         _______ _______ _______ _____ _____    ______ ____
ROOT
ATOM      1  O   HOH     1       9.616  32.795  56.283  0.00  0.00    +0.000 OA
ENDROOT
TORSDOF 0
REMARK  Name = ../refined-set-2016/2xpc/2xpc_pocket.pdb
REMARK  246 active torsions:
REMARK  status: ('A' for Active; 'I' for Inactive)
REMARK    1  A    between atoms: _1  and  _3
REMARK    2  A    between atoms: _3  and  _4
REMARK    3  A    between atoms: _3  and  _6
REMARK    4  A    between atoms: _6  and  _7
REMARK    5  A    between atoms: _10  and  _12
REMARK    6  A    between atoms: _12  and  _13
REMARK    7  A    between atoms: _12  and  _15
REMARK    8  A    between atoms: _15  and  _16
REMARK    9  A    between atoms: _19  and  _21
REMARK   10  A    between atoms: _21  and  _22
REMARK   11  A    between atoms: _24  and  _26
REMARK   12  A    between atoms: _26  and  _27
REMARK   13  A    between atoms: _26  and  _29
REMARK   14  A    between atoms: _29  and  _30
REMARK   15  A    between atoms: _33  and  _35
REMARK   16  A    between atoms: _35  and  _36
REMARK   17  A    between atoms: _38  and  _40
REMARK   18  A    between atoms: _40  and  _41
REMARK   19  A    between atoms: _40  and  _43
REMARK   20  A    between atoms: _43  and  _44
REMARK   21  A    between atoms: _47  and  _49
REMARK   22  A    between atoms: _49  and  _50
REMARK   23  A    between atoms: _49  and  _52
REMARK   24  A    between atoms: _52  and  _53
REMARK   25  A    between atoms: _56  and  _58
REMARK   26  A    between atoms: _58  and  _59
REMARK   27  A    between atoms: _61  and  _63
REMARK   28  A    between atoms: _63  and  _64
REMARK   29  A    between atoms: _63  and  _66
REMARK   30  A    between atoms: _66  and  _67
REMARK   31  A    between atoms: _67  and  _68
REMARK   32  A    between atoms: _70  and  _72
REMARK   33  A    between atoms: _72  and  _73
REMARK   34  A    between atoms: _72  and  _75
REMARK   35  A    between atoms: _75  and  _76
REMARK   36  A    between atoms: _79  and  _81
REMARK   37  A    between atoms: _81  and  _82
REMARK   38  A    between atoms: _81  and  _84
REMARK   39  A    between atoms: _84  and  _85
REMARK   40  A    between atoms: _88  and  _90
REMARK   41  A    between atoms: _90  and  _91
REMARK   42  A    between atoms: _90  and  _93
REMARK   43  A    between atoms: _93  and  _94
REMARK   44  A    between atoms: _94  and  _95
REMARK   45  A    between atoms: _95  and  _96
REMARK   46  A    between atoms: _106  and  _107
REMARK   47  A    between atoms: _113  and  _114
REMARK   48  A    between atoms: _119  and  _121
REMARK   49  A    between atoms: _121  and  _122
REMARK   50  A    between atoms: _121  and  _124
REMARK   51  A    between atoms: _124  and  _125
REMARK   52  A    between atoms: _130  and  _132
REMARK   53  A    between atoms: _132  and  _133
REMARK   54  A    between atoms: _135  and  _137
REMARK   55  A    between atoms: _137  and  _138
REMARK   56  A    between atoms: _137  and  _140
REMARK   57  A    between atoms: _140  and  _141
REMARK   58  A    between atoms: _143  and  _145
REMARK   59  A    between atoms: _145  and  _146
REMARK   60  A    between atoms: _145  and  _148
REMARK   61  A    between atoms: _148  and  _149
REMARK   62  A    between atoms: _152  and  _154
REMARK   63  A    between atoms: _154  and  _155
REMARK   64  A    between atoms: _154  and  _157
REMARK   65  A    between atoms: _157  and  _158
REMARK   66  A    between atoms: _163  and  _165
REMARK   67  A    between atoms: _165  and  _166
REMARK   68  A    between atoms: _169  and  _171
REMARK   69  A    between atoms: _171  and  _172
REMARK   70  A    between atoms: _171  and  _174
REMARK   71  A    between atoms: _174  and  _175
REMARK   72  A    between atoms: _178  and  _179
REMARK   73  A    between atoms: _184  and  _186
REMARK   74  A    between atoms: _186  and  _187
REMARK   75  A    between atoms: _189  and  _191
REMARK   76  A    between atoms: _191  and  _192
REMARK   77  A    between atoms: _191  and  _194
REMARK   78  A    between atoms: _194  and  _195
REMARK   79  A    between atoms: _198  and  _200
REMARK   80  A    between atoms: _200  and  _201
REMARK   81  A    between atoms: _204  and  _206
REMARK   82  A    between atoms: _206  and  _207
REMARK   83  A    between atoms: _206  and  _209
REMARK   84  A    between atoms: _209  and  _210
REMARK   85  A    between atoms: _215  and  _217
REMARK   86  A    between atoms: _217  and  _218
REMARK   87  A    between atoms: _217  and  _220
REMARK   88  A    between atoms: _220  and  _221
REMARK   89  A    between atoms: _223  and  _225
REMARK   90  A    between atoms: _225  and  _226
REMARK   91  A    between atoms: _225  and  _228
REMARK   92  A    between atoms: _228  and  _229
REMARK   93  A    between atoms: _229  and  _230
REMARK   94  A    between atoms: _230  and  _231
REMARK   95  A    between atoms: _231  and  _232
REMARK   96  A    between atoms: _236  and  _238
REMARK   97  A    between atoms: _238  and  _239
REMARK   98  A    between atoms: _238  and  _241
REMARK   99  A    between atoms: _241  and  _242
REMARK  100  A    between atoms: _247  and  _249
REMARK  101  A    between atoms: _249  and  _250
REMARK  102  A    between atoms: _249  and  _252
REMARK  103  A    between atoms: _252  and  _253
REMARK  104  A    between atoms: _255  and  _257
REMARK  105  A    between atoms: _257  and  _258
REMARK  106  A    between atoms: _257  and  _260
REMARK  107  A    between atoms: _260  and  _261
REMARK  108  A    between atoms: _263  and  _265
REMARK  109  A    between atoms: _265  and  _266
REMARK  110  A    between atoms: _265  and  _268
REMARK  111  A    between atoms: _268  and  _269
REMARK  112  A    between atoms: _275  and  _277
REMARK  113  A    between atoms: _277  and  _278
REMARK  114  A    between atoms: _277  and  _280
REMARK  115  A    between atoms: _280  and  _281
REMARK  116  A    between atoms: _281  and  _282
REMARK  117  A    between atoms: _287  and  _289
REMARK  118  A    between atoms: _289  and  _290
REMARK  119  A    between atoms: _289  and  _292
REMARK  120  A    between atoms: _292  and  _293
REMARK  121  A    between atoms: _296  and  _298
REMARK  122  A    between atoms: _298  and  _299
REMARK  123  A    between atoms: _298  and  _301
REMARK  124  A    between atoms: _301  and  _302
REMARK  125  A    between atoms: _307  and  _309
REMARK  126  A    between atoms: _309  and  _310
REMARK  127  A    between atoms: _309  and  _312
REMARK  128  A    between atoms: _312  and  _313
REMARK  129  A    between atoms: _313  and  _314
REMARK  130  A    between atoms: _316  and  _318
REMARK  131  A    between atoms: _318  and  _319
REMARK  132  A    between atoms: _318  and  _321
REMARK  133  A    between atoms: _321  and  _322
REMARK  134  A    between atoms: _325  and  _327
REMARK  135  A    between atoms: _327  and  _328
REMARK  136  A    between atoms: _327  and  _330
REMARK  137  A    between atoms: _330  and  _331
REMARK  138  A    between atoms: _331  and  _332
REMARK  139  A    between atoms: _332  and  _333
REMARK  140  A    between atoms: _342  and  _344
REMARK  141  A    between atoms: _344  and  _345
REMARK  142  A    between atoms: _344  and  _347
REMARK  143  A    between atoms: _347  and  _348
REMARK  144  A    between atoms: _353  and  _354
REMARK  145  A    between atoms: _356  and  _358
REMARK  146  A    between atoms: _358  and  _359
REMARK  147  A    between atoms: _358  and  _365
REMARK  148  A    between atoms: _359  and  _360
REMARK  149  A    between atoms: _360  and  _361
REMARK  150  A    between atoms: _361  and  _362
REMARK  151  A    between atoms: _362  and  _363
REMARK  152  A    between atoms: _370  and  _372
REMARK  153  A    between atoms: _372  and  _373
REMARK  154  A    between atoms: _372  and  _375
REMARK  155  A    between atoms: _375  and  _376
REMARK  156  A    between atoms: _378  and  _380
REMARK  157  A    between atoms: _380  and  _381
REMARK  158  A    between atoms: _380  and  _383
REMARK  159  A    between atoms: _383  and  _384
REMARK  160  A    between atoms: _384  and  _385
REMARK  161  A    between atoms: _385  and  _386
REMARK  162  A    between atoms: _386  and  _387
REMARK  163  A    between atoms: _391  and  _393
REMARK  164  A    between atoms: _393  and  _394
REMARK  165  A    between atoms: _397  and  _399
REMARK  166  A    between atoms: _399  and  _400
REMARK  167  A    between atoms: _399  and  _402
REMARK  168  A    between atoms: _402  and  _403
REMARK  169  A    between atoms: _406  and  _408
REMARK  170  A    between atoms: _408  and  _409
REMARK  171  A    between atoms: _408  and  _411
REMARK  172  A    between atoms: _411  and  _412
REMARK  173  A    between atoms: _417  and  _419
REMARK  174  A    between atoms: _419  and  _420
REMARK  175  A    between atoms: _419  and  _422
REMARK  176  A    between atoms: _422  and  _423
REMARK  177  A    between atoms: _426  and  _428
REMARK  178  A    between atoms: _428  and  _429
REMARK  179  A    between atoms: _431  and  _433
REMARK  180  A    between atoms: _433  and  _434
REMARK  181  A    between atoms: _433  and  _436
REMARK  182  A    between atoms: _436  and  _437
REMARK  183  A    between atoms: _437  and  _438
REMARK  184  A    between atoms: _438  and  _439
REMARK  185  A    between atoms: _439  and  _440
REMARK  186  A    between atoms: _444  and  _446
REMARK  187  A    between atoms: _446  and  _447
REMARK  188  A    between atoms: _450  and  _452
REMARK  189  A    between atoms: _452  and  _453
REMARK  190  A    between atoms: _452  and  _455
REMARK  191  A    between atoms: _457  and  _459
REMARK  192  A    between atoms: _459  and  _460
REMARK  193  A    between atoms: _463  and  _465
REMARK  194  A    between atoms: _465  and  _466
REMARK  195  A    between atoms: _465  and  _468
REMARK  196  A    between atoms: _468  and  _469
REMARK  197  A    between atoms: _471  and  _473
REMARK  198  A    between atoms: _473  and  _474
REMARK  199  A    between atoms: _473  and  _476
REMARK  200  A    between atoms: _476  and  _477
REMARK  201  A    between atoms: _480  and  _482
REMARK  202  A    between atoms: _482  and  _483
REMARK  203  A    between atoms: _482  and  _485
REMARK  204  A    between atoms: _485  and  _486
REMARK  205  A    between atoms: _489  and  _491
REMARK  206  A    between atoms: _491  and  _492
REMARK  207  A    between atoms: _491  and  _494
REMARK  208  A    between atoms: _494  and  _495
REMARK  209  A    between atoms: _495  and  _496
REMARK  210  A    between atoms: _501  and  _503
REMARK  211  A    between atoms: _503  and  _504
REMARK  212  A    between atoms: _503  and  _506
REMARK  213  A    between atoms: _506  and  _507
REMARK  214  A    between atoms: _513  and  _515
REMARK  215  A    between atoms: _515  and  _516
REMARK  216  A    between atoms: _515  and  _518
REMARK  217  A    between atoms: _518  and  _519
REMARK  218  A    between atoms: _519  and  _520
REMARK  219  A    between atoms: _520  and  _521
REMARK  220  A    between atoms: _521  and  _522
REMARK  221  A    between atoms: _526  and  _528
REMARK  222  A    between atoms: _528  and  _529
REMARK  223  A    between atoms: _528  and  _531
REMARK  224  A    between atoms: _531  and  _532
REMARK  225  A    between atoms: _537  and  _539
REMARK  226  A    between atoms: _539  and  _540
REMARK  227  A    between atoms: _539  and  _542
REMARK  228  A    between atoms: _542  and  _543
REMARK  229  A    between atoms: _549  and  _551
REMARK  230  A    between atoms: _551  and  _552
REMARK  231  A    between atoms: _551  and  _554
REMARK  232  A    between atoms: _554  and  _555
REMARK  233  A    between atoms: _555  and  _556
REMARK  234  A    between atoms: _559  and  _561
REMARK  235  A    between atoms: _561  and  _562
REMARK  236  A    between atoms: _561  and  _564
REMARK  237  A    between atoms: _564  and  _565
REMARK  238  A    between atoms: _565  and  _566
REMARK  239  A    between atoms: _571  and  _573
REMARK  240  A    between atoms: _573  and  _574
REMARK  241  A    between atoms: _573  and  _576
REMARK  242  A    between atoms: _576  and  _577
REMARK  243  A    between atoms: _577  and  _578
REMARK  244  A    between atoms: _578  and  _579
REMARK  245  A    between atoms: _588  and  _590
REMARK  246  A    between atoms: _590  and  _591
REMARK                            x       y       z     vdW  Elec       q    Type
REMARK                         _______ _______ _______ _____ _____    ______ ____
ROOT
ATOM      1  O   HOH     1       4.782  27.035  55.605  0.00  0.00    +0.000 OA
ENDROOT
TORSDOF 0
REMARK  Name = ../refined-set-2016/2xpc/2xpc_pocket.pdb
REMARK  246 active torsions:
REMARK  status: ('A' for Active; 'I' for Inactive)
REMARK    1  A    between atoms: _1  and  _3
REMARK    2  A    between atoms: _3  and  _4
REMARK    3  A    between atoms: _3  and  _6
REMARK    4  A    between atoms: _6  and  _7
REMARK    5  A    between atoms: _10  and  _12
REMARK    6  A    between atoms: _12  and  _13
REMARK    7  A    between atoms: _12  and  _15
REMARK    8  A    between atoms: _15  and  _16
REMARK    9  A    between atoms: _19  and  _21
REMARK   10  A    between atoms: _21  and  _22
REMARK   11  A    between atoms: _24  and  _26
REMARK   12  A    between atoms: _26  and  _27
REMARK   13  A    between atoms: _26  and  _29
REMARK   14  A    between atoms: _29  and  _30
REMARK   15  A    between atoms: _33  and  _35
REMARK   16  A    between atoms: _35  and  _36
REMARK   17  A    between atoms: _38  and  _40
REMARK   18  A    between atoms: _40  and  _41
REMARK   19  A    between atoms: _40  and  _43
REMARK   20  A    between atoms: _43  and  _44
REMARK   21  A    between atoms: _47  and  _49
REMARK   22  A    between atoms: _49  and  _50
REMARK   23  A    between atoms: _49  and  _52
REMARK   24  A    between atoms: _52  and  _53
REMARK   25  A    between atoms: _56  and  _58
REMARK   26  A    between atoms: _58  and  _59
REMARK   27  A    between atoms: _61  and  _63
REMARK   28  A    between atoms: _63  and  _64
REMARK   29  A    between atoms: _63  and  _66
REMARK   30  A    between atoms: _66  and  _67
REMARK   31  A    between atoms: _67  and  _68
REMARK   32  A    between atoms: _70  and  _72
REMARK   33  A    between atoms: _72  and  _73
REMARK   34  A    between atoms: _72  and  _75
REMARK   35  A    between atoms: _75  and  _76
REMARK   36  A    between atoms: _79  and  _81
REMARK   37  A    between atoms: _81  and  _82
REMARK   38  A    between atoms: _81  and  _84
REMARK   39  A    between atoms: _84  and  _85
REMARK   40  A    between atoms: _88  and  _90
REMARK   41  A    between atoms: _90  and  _91
REMARK   42  A    between atoms: _90  and  _93
REMARK   43  A    between atoms: _93  and  _94
REMARK   44  A    between atoms: _94  and  _95
REMARK   45  A    between atoms: _95  and  _96
REMARK   46  A    between atoms: _106  and  _107
REMARK   47  A    between atoms: _113  and  _114
REMARK   48  A    between atoms: _119  and  _121
REMARK   49  A    between atoms: _121  and  _122
REMARK   50  A    between atoms: _121  and  _124
REMARK   51  A    between atoms: _124  and  _125
REMARK   52  A    between atoms: _130  and  _132
REMARK   53  A    between atoms: _132  and  _133
REMARK   54  A    between atoms: _135  and  _137
REMARK   55  A    between atoms: _137  and  _138
REMARK   56  A    between atoms: _137  and  _140
REMARK   57  A    between atoms: _140  and  _141
REMARK   58  A    between atoms: _143  and  _145
REMARK   59  A    between atoms: _145  and  _146
REMARK   60  A    between atoms: _145  and  _148
REMARK   61  A    between atoms: _148  and  _149
REMARK   62  A    between atoms: _152  and  _154
REMARK   63  A    between atoms: _154  and  _155
REMARK   64  A    between atoms: _154  and  _157
REMARK   65  A    between atoms: _157  and  _158
REMARK   66  A    between atoms: _163  and  _165
REMARK   67  A    between atoms: _165  and  _166
REMARK   68  A    between atoms: _169  and  _171
REMARK   69  A    between atoms: _171  and  _172
REMARK   70  A    between atoms: _171  and  _174
REMARK   71  A    between atoms: _174  and  _175
REMARK   72  A    between atoms: _178  and  _179
REMARK   73  A    between atoms: _184  and  _186
REMARK   74  A    between atoms: _186  and  _187
REMARK   75  A    between atoms: _189  and  _191
REMARK   76  A    between atoms: _191  and  _192
REMARK   77  A    between atoms: _191  and  _194
REMARK   78  A    between atoms: _194  and  _195
REMARK   79  A    between atoms: _198  and  _200
REMARK   80  A    between atoms: _200  and  _201
REMARK   81  A    between atoms: _204  and  _206
REMARK   82  A    between atoms: _206  and  _207
REMARK   83  A    between atoms: _206  and  _209
REMARK   84  A    between atoms: _209  and  _210
REMARK   85  A    between atoms: _215  and  _217
REMARK   86  A    between atoms: _217  and  _218
REMARK   87  A    between atoms: _217  and  _220
REMARK   88  A    between atoms: _220  and  _221
REMARK   89  A    between atoms: _223  and  _225
REMARK   90  A    between atoms: _225  and  _226
REMARK   91  A    between atoms: _225  and  _228
REMARK   92  A    between atoms: _228  and  _229
REMARK   93  A    between atoms: _229  and  _230
REMARK   94  A    between atoms: _230  and  _231
REMARK   95  A    between atoms: _231  and  _232
REMARK   96  A    between atoms: _236  and  _238
REMARK   97  A    between atoms: _238  and  _239
REMARK   98  A    between atoms: _238  and  _241
REMARK   99  A    between atoms: _241  and  _242
REMARK  100  A    between atoms: _247  and  _249
REMARK  101  A    between atoms: _249  and  _250
REMARK  102  A    between atoms: _249  and  _252
REMARK  103  A    between atoms: _252  and  _253
REMARK  104  A    between atoms: _255  and  _257
REMARK  105  A    between atoms: _257  and  _258
REMARK  106  A    between atoms: _257  and  _260
REMARK  107  A    between atoms: _260  and  _261
REMARK  108  A    between atoms: _263  and  _265
REMARK  109  A    between atoms: _265  and  _266
REMARK  110  A    between atoms: _265  and  _268
REMARK  111  A    between atoms: _268  and  _269
REMARK  112  A    between atoms: _275  and  _277
REMARK  113  A    between atoms: _277  and  _278
REMARK  114  A    between atoms: _277  and  _280
REMARK  115  A    between atoms: _280  and  _281
REMARK  116  A    between atoms: _281  and  _282
REMARK  117  A    between atoms: _287  and  _289
REMARK  118  A    between atoms: _289  and  _290
REMARK  119  A    between atoms: _289  and  _292
REMARK  120  A    between atoms: _292  and  _293
REMARK  121  A    between atoms: _296  and  _298
REMARK  122  A    between atoms: _298  and  _299
REMARK  123  A    between atoms: _298  and  _301
REMARK  124  A    between atoms: _301  and  _302
REMARK  125  A    between atoms: _307  and  _309
REMARK  126  A    between atoms: _309  and  _310
REMARK  127  A    between atoms: _309  and  _312
REMARK  128  A    between atoms: _312  and  _313
REMARK  129  A    between atoms: _313  and  _314
REMARK  130  A    between atoms: _316  and  _318
REMARK  131  A    between atoms: _318  and  _319
REMARK  132  A    between atoms: _318  and  _321
REMARK  133  A    between atoms: _321  and  _322
REMARK  134  A    between atoms: _325  and  _327
REMARK  135  A    between atoms: _327  and  _328
REMARK  136  A    between atoms: _327  and  _330
REMARK  137  A    between atoms: _330  and  _331
REMARK  138  A    between atoms: _331  and  _332
REMARK  139  A    between atoms: _332  and  _333
REMARK  140  A    between atoms: _342  and  _344
REMARK  141  A    between atoms: _344  and  _345
REMARK  142  A    between atoms: _344  and  _347
REMARK  143  A    between atoms: _347  and  _348
REMARK  144  A    between atoms: _353  and  _354
REMARK  145  A    between atoms: _356  and  _358
REMARK  146  A    between atoms: _358  and  _359
REMARK  147  A    between atoms: _358  and  _365
REMARK  148  A    between atoms: _359  and  _360
REMARK  149  A    between atoms: _360  and  _361
REMARK  150  A    between atoms: _361  and  _362
REMARK  151  A    between atoms: _362  and  _363
REMARK  152  A    between atoms: _370  and  _372
REMARK  153  A    between atoms: _372  and  _373
REMARK  154  A    between atoms: _372  and  _375
REMARK  155  A    between atoms: _375  and  _376
REMARK  156  A    between atoms: _378  and  _380
REMARK  157  A    between atoms: _380  and  _381
REMARK  158  A    between atoms: _380  and  _383
REMARK  159  A    between atoms: _383  and  _384
REMARK  160  A    between atoms: _384  and  _385
REMARK  161  A    between atoms: _385  and  _386
REMARK  162  A    between atoms: _386  and  _387
REMARK  163  A    between atoms: _391  and  _393
REMARK  164  A    between atoms: _393  and  _394
REMARK  165  A    between atoms: _397  and  _399
REMARK  166  A    between atoms: _399  and  _400
REMARK  167  A    between atoms: _399  and  _402
REMARK  168  A    between atoms: _402  and  _403
REMARK  169  A    between atoms: _406  and  _408
REMARK  170  A    between atoms: _408  and  _409
REMARK  171  A    between atoms: _408  and  _411
REMARK  172  A    between atoms: _411  and  _412
REMARK  173  A    between atoms: _417  and  _419
REMARK  174  A    between atoms: _419  and  _420
REMARK  175  A    between atoms: _419  and  _422
REMARK  176  A    between atoms: _422  and  _423
REMARK  177  A    between atoms: _426  and  _428
REMARK  178  A    between atoms: _428  and  _429
REMARK  179  A    between atoms: _431  and  _433
REMARK  180  A    between atoms: _433  and  _434
REMARK  181  A    between atoms: _433  and  _436
REMARK  182  A    between atoms: _436  and  _437
REMARK  183  A    between atoms: _437  and  _438
REMARK  184  A    between atoms: _438  and  _439
REMARK  185  A    between atoms: _439  and  _440
REMARK  186  A    between atoms: _444  and  _446
REMARK  187  A    between atoms: _446  and  _447
REMARK  188  A    between atoms: _450  and  _452
REMARK  189  A    between atoms: _452  and  _453
REMARK  190  A    between atoms: _452  and  _455
REMARK  191  A    between atoms: _457  and  _459
REMARK  192  A    between atoms: _459  and  _460
REMARK  193  A    between atoms: _463  and  _465
REMARK  194  A    between atoms: _465  and  _466
REMARK  195  A    between atoms: _465  and  _468
REMARK  196  A    between atoms: _468  and  _469
REMARK  197  A    between atoms: _471  and  _473
REMARK  198  A    between atoms: _473  and  _474
REMARK  199  A    between atoms: _473  and  _476
REMARK  200  A    between atoms: _476  and  _477
REMARK  201  A    between atoms: _480  and  _482
REMARK  202  A    between atoms: _482  and  _483
REMARK  203  A    between atoms: _482  and  _485
REMARK  204  A    between atoms: _485  and  _486
REMARK  205  A    between atoms: _489  and  _491
REMARK  206  A    between atoms: _491  and  _492
REMARK  207  A    between atoms: _491  and  _494
REMARK  208  A    between atoms: _494  and  _495
REMARK  209  A    between atoms: _495  and  _496
REMARK  210  A    between atoms: _501  and  _503
REMARK  211  A    between atoms: _503  and  _504
REMARK  212  A    between atoms: _503  and  _506
REMARK  213  A    between atoms: _506  and  _507
REMARK  214  A    between atoms: _513  and  _515
REMARK  215  A    between atoms: _515  and  _516
REMARK  216  A    between atoms: _515  and  _518
REMARK  217  A    between atoms: _518  and  _519
REMARK  218  A    between atoms: _519  and  _520
REMARK  219  A    between atoms: _520  and  _521
REMARK  220  A    between atoms: _521  and  _522
REMARK  221  A    between atoms: _526  and  _528
REMARK  222  A    between atoms: _528  and  _529
REMARK  223  A    between atoms: _528  and  _531
REMARK  224  A    between atoms: _531  and  _532
REMARK  225  A    between atoms: _537  and  _539
REMARK  226  A    between atoms: _539  and  _540
REMARK  227  A    between atoms: _539  and  _542
REMARK  228  A    between atoms: _542  and  _543
REMARK  229  A    between atoms: _549  and  _551
REMARK  230  A    between atoms: _551  and  _552
REMARK  231  A    between atoms: _551  and  _554
REMARK  232  A    between atoms: _554  and  _555
REMARK  233  A    between atoms: _555  and  _556
REMARK  234  A    between atoms: _559  and  _561
REMARK  235  A    between atoms: _561  and  _562
REMARK  236  A    between atoms: _561  and  _564
REMARK  237  A    between atoms: _564  and  _565
REMARK  238  A    between atoms: _565  and  _566
REMARK  239  A    between atoms: _571  and  _573
REMARK  240  A    between atoms: _573  and  _574
REMARK  241  A    between atoms: _573  and  _576
REMARK  242  A    between atoms: _576  and  _577
REMARK  243  A    between atoms: _577  and  _578
REMARK  244  A    between atoms: _578  and  _579
REMARK  245  A    between atoms: _588  and  _590
REMARK  246  A    between atoms: _590  and  _591
REMARK                            x       y       z     vdW  Elec       q    Type
REMARK                         _______ _______ _______ _____ _____    ______ ____
ROOT
ATOM      1  O   HOH     1      12.931  27.801  54.009  0.00  0.00    +0.000 OA
ENDROOT
TORSDOF 0
REMARK  Name = ../refined-set-2016/2xpc/2xpc_pocket.pdb
REMARK  246 active torsions:
REMARK  status: ('A' for Active; 'I' for Inactive)
REMARK    1  A    between atoms: _1  and  _3
REMARK    2  A    between atoms: _3  and  _4
REMARK    3  A    between atoms: _3  and  _6
REMARK    4  A    between atoms: _6  and  _7
REMARK    5  A    between atoms: _10  and  _12
REMARK    6  A    between atoms: _12  and  _13
REMARK    7  A    between atoms: _12  and  _15
REMARK    8  A    between atoms: _15  and  _16
REMARK    9  A    between atoms: _19  and  _21
REMARK   10  A    between atoms: _21  and  _22
REMARK   11  A    between atoms: _24  and  _26
REMARK   12  A    between atoms: _26  and  _27
REMARK   13  A    between atoms: _26  and  _29
REMARK   14  A    between atoms: _29  and  _30
REMARK   15  A    between atoms: _33  and  _35
REMARK   16  A    between atoms: _35  and  _36
REMARK   17  A    between atoms: _38  and  _40
REMARK   18  A    between atoms: _40  and  _41
REMARK   19  A    between atoms: _40  and  _43
REMARK   20  A    between atoms: _43  and  _44
REMARK   21  A    between atoms: _47  and  _49
REMARK   22  A    between atoms: _49  and  _50
REMARK   23  A    between atoms: _49  and  _52
REMARK   24  A    between atoms: _52  and  _53
REMARK   25  A    between atoms: _56  and  _58
REMARK   26  A    between atoms: _58  and  _59
REMARK   27  A    between atoms: _61  and  _63
REMARK   28  A    between atoms: _63  and  _64
REMARK   29  A    between atoms: _63  and  _66
REMARK   30  A    between atoms: _66  and  _67
REMARK   31  A    between atoms: _67  and  _68
REMARK   32  A    between atoms: _70  and  _72
REMARK   33  A    between atoms: _72  and  _73
REMARK   34  A    between atoms: _72  and  _75
REMARK   35  A    between atoms: _75  and  _76
REMARK   36  A    between atoms: _79  and  _81
REMARK   37  A    between atoms: _81  and  _82
REMARK   38  A    between atoms: _81  and  _84
REMARK   39  A    between atoms: _84  and  _85
REMARK   40  A    between atoms: _88  and  _90
REMARK   41  A    between atoms: _90  and  _91
REMARK   42  A    between atoms: _90  and  _93
REMARK   43  A    between atoms: _93  and  _94
REMARK   44  A    between atoms: _94  and  _95
REMARK   45  A    between atoms: _95  and  _96
REMARK   46  A    between atoms: _106  and  _107
REMARK   47  A    between atoms: _113  and  _114
REMARK   48  A    between atoms: _119  and  _121
REMARK   49  A    between atoms: _121  and  _122
REMARK   50  A    between atoms: _121  and  _124
REMARK   51  A    between atoms: _124  and  _125
REMARK   52  A    between atoms: _130  and  _132
REMARK   53  A    between atoms: _132  and  _133
REMARK   54  A    between atoms: _135  and  _137
REMARK   55  A    between atoms: _137  and  _138
REMARK   56  A    between atoms: _137  and  _140
REMARK   57  A    between atoms: _140  and  _141
REMARK   58  A    between atoms: _143  and  _145
REMARK   59  A    between atoms: _145  and  _146
REMARK   60  A    between atoms: _145  and  _148
REMARK   61  A    between atoms: _148  and  _149
REMARK   62  A    between atoms: _152  and  _154
REMARK   63  A    between atoms: _154  and  _155
REMARK   64  A    between atoms: _154  and  _157
REMARK   65  A    between atoms: _157  and  _158
REMARK   66  A    between atoms: _163  and  _165
REMARK   67  A    between atoms: _165  and  _166
REMARK   68  A    between atoms: _169  and  _171
REMARK   69  A    between atoms: _171  and  _172
REMARK   70  A    between atoms: _171  and  _174
REMARK   71  A    between atoms: _174  and  _175
REMARK   72  A    between atoms: _178  and  _179
REMARK   73  A    between atoms: _184  and  _186
REMARK   74  A    between atoms: _186  and  _187
REMARK   75  A    between atoms: _189  and  _191
REMARK   76  A    between atoms: _191  and  _192
REMARK   77  A    between atoms: _191  and  _194
REMARK   78  A    between atoms: _194  and  _195
REMARK   79  A    between atoms: _198  and  _200
REMARK   80  A    between atoms: _200  and  _201
REMARK   81  A    between atoms: _204  and  _206
REMARK   82  A    between atoms: _206  and  _207
REMARK   83  A    between atoms: _206  and  _209
REMARK   84  A    between atoms: _209  and  _210
REMARK   85  A    between atoms: _215  and  _217
REMARK   86  A    between atoms: _217  and  _218
REMARK   87  A    between atoms: _217  and  _220
REMARK   88  A    between atoms: _220  and  _221
REMARK   89  A    between atoms: _223  and  _225
REMARK   90  A    between atoms: _225  and  _226
REMARK   91  A    between atoms: _225  and  _228
REMARK   92  A    between atoms: _228  and  _229
REMARK   93  A    between atoms: _229  and  _230
REMARK   94  A    between atoms: _230  and  _231
REMARK   95  A    between atoms: _231  and  _232
REMARK   96  A    between atoms: _236  and  _238
REMARK   97  A    between atoms: _238  and  _239
REMARK   98  A    between atoms: _238  and  _241
REMARK   99  A    between atoms: _241  and  _242
REMARK  100  A    between atoms: _247  and  _249
REMARK  101  A    between atoms: _249  and  _250
REMARK  102  A    between atoms: _249  and  _252
REMARK  103  A    between atoms: _252  and  _253
REMARK  104  A    between atoms: _255  and  _257
REMARK  105  A    between atoms: _257  and  _258
REMARK  106  A    between atoms: _257  and  _260
REMARK  107  A    between atoms: _260  and  _261
REMARK  108  A    between atoms: _263  and  _265
REMARK  109  A    between atoms: _265  and  _266
REMARK  110  A    between atoms: _265  and  _268
REMARK  111  A    between atoms: _268  and  _269
REMARK  112  A    between atoms: _275  and  _277
REMARK  113  A    between atoms: _277  and  _278
REMARK  114  A    between atoms: _277  and  _280
REMARK  115  A    between atoms: _280  and  _281
REMARK  116  A    between atoms: _281  and  _282
REMARK  117  A    between atoms: _287  and  _289
REMARK  118  A    between atoms: _289  and  _290
REMARK  119  A    between atoms: _289  and  _292
REMARK  120  A    between atoms: _292  and  _293
REMARK  121  A    between atoms: _296  and  _298
REMARK  122  A    between atoms: _298  and  _299
REMARK  123  A    between atoms: _298  and  _301
REMARK  124  A    between atoms: _301  and  _302
REMARK  125  A    between atoms: _307  and  _309
REMARK  126  A    between atoms: _309  and  _310
REMARK  127  A    between atoms: _309  and  _312
REMARK  128  A    between atoms: _312  and  _313
REMARK  129  A    between atoms: _313  and  _314
REMARK  130  A    between atoms: _316  and  _318
REMARK  131  A    between atoms: _318  and  _319
REMARK  132  A    between atoms: _318  and  _321
REMARK  133  A    between atoms: _321  and  _322
REMARK  134  A    between atoms: _325  and  _327
REMARK  135  A    between atoms: _327  and  _328
REMARK  136  A    between atoms: _327  and  _330
REMARK  137  A    between atoms: _330  and  _331
REMARK  138  A    between atoms: _331  and  _332
REMARK  139  A    between atoms: _332  and  _333
REMARK  140  A    between atoms: _342  and  _344
REMARK  141  A    between atoms: _344  and  _345
REMARK  142  A    between atoms: _344  and  _347
REMARK  143  A    between atoms: _347  and  _348
REMARK  144  A    between atoms: _353  and  _354
REMARK  145  A    between atoms: _356  and  _358
REMARK  146  A    between atoms: _358  and  _359
REMARK  147  A    between atoms: _358  and  _365
REMARK  148  A    between atoms: _359  and  _360
REMARK  149  A    between atoms: _360  and  _361
REMARK  150  A    between atoms: _361  and  _362
REMARK  151  A    between atoms: _362  and  _363
REMARK  152  A    between atoms: _370  and  _372
REMARK  153  A    between atoms: _372  and  _373
REMARK  154  A    between atoms: _372  and  _375
REMARK  155  A    between atoms: _375  and  _376
REMARK  156  A    between atoms: _378  and  _380
REMARK  157  A    between atoms: _380  and  _381
REMARK  158  A    between atoms: _380  and  _383
REMARK  159  A    between atoms: _383  and  _384
REMARK  160  A    between atoms: _384  and  _385
REMARK  161  A    between atoms: _385  and  _386
REMARK  162  A    between atoms: _386  and  _387
REMARK  163  A    between atoms: _391  and  _393
REMARK  164  A    between atoms: _393  and  _394
REMARK  165  A    between atoms: _397  and  _399
REMARK  166  A    between atoms: _399  and  _400
REMARK  167  A    between atoms: _399  and  _402
REMARK  168  A    between atoms: _402  and  _403
REMARK  169  A    between atoms: _406  and  _408
REMARK  170  A    between atoms: _408  and  _409
REMARK  171  A    between atoms: _408  and  _411
REMARK  172  A    between atoms: _411  and  _412
REMARK  173  A    between atoms: _417  and  _419
REMARK  174  A    between atoms: _419  and  _420
REMARK  175  A    between atoms: _419  and  _422
REMARK  176  A    between atoms: _422  and  _423
REMARK  177  A    between atoms: _426  and  _428
REMARK  178  A    between atoms: _428  and  _429
REMARK  179  A    between atoms: _431  and  _433
REMARK  180  A    between atoms: _433  and  _434
REMARK  181  A    between atoms: _433  and  _436
REMARK  182  A    between atoms: _436  and  _437
REMARK  183  A    between atoms: _437  and  _438
REMARK  184  A    between atoms: _438  and  _439
REMARK  185  A    between atoms: _439  and  _440
REMARK  186  A    between atoms: _444  and  _446
REMARK  187  A    between atoms: _446  and  _447
REMARK  188  A    between atoms: _450  and  _452
REMARK  189  A    between atoms: _452  and  _453
REMARK  190  A    between atoms: _452  and  _455
REMARK  191  A    between atoms: _457  and  _459
REMARK  192  A    between atoms: _459  and  _460
REMARK  193  A    between atoms: _463  and  _465
REMARK  194  A    between atoms: _465  and  _466
REMARK  195  A    between atoms: _465  and  _468
REMARK  196  A    between atoms: _468  and  _469
REMARK  197  A    between atoms: _471  and  _473
REMARK  198  A    between atoms: _473  and  _474
REMARK  199  A    between atoms: _473  and  _476
REMARK  200  A    between atoms: _476  and  _477
REMARK  201  A    between atoms: _480  and  _482
REMARK  202  A    between atoms: _482  and  _483
REMARK  203  A    between atoms: _482  and  _485
REMARK  204  A    between atoms: _485  and  _486
REMARK  205  A    between atoms: _489  and  _491
REMARK  206  A    between atoms: _491  and  _492
REMARK  207  A    between atoms: _491  and  _494
REMARK  208  A    between atoms: _494  and  _495
REMARK  209  A    between atoms: _495  and  _496
REMARK  210  A    between atoms: _501  and  _503
REMARK  211  A    between atoms: _503  and  _504
REMARK  212  A    between atoms: _503  and  _506
REMARK  213  A    between atoms: _506  and  _507
REMARK  214  A    between atoms: _513  and  _515
REMARK  215  A    between atoms: _515  and  _516
REMARK  216  A    between atoms: _515  and  _518
REMARK  217  A    between atoms: _518  and  _519
REMARK  218  A    between atoms: _519  and  _520
REMARK  219  A    between atoms: _520  and  _521
REMARK  220  A    between atoms: _521  and  _522
REMARK  221  A    between atoms: _526  and  _528
REMARK  222  A    between atoms: _528  and  _529
REMARK  223  A    between atoms: _528  and  _531
REMARK  224  A    between atoms: _531  and  _532
REMARK  225  A    between atoms: _537  and  _539
REMARK  226  A    between atoms: _539  and  _540
REMARK  227  A    between atoms: _539  and  _542
REMARK  228  A    between atoms: _542  and  _543
REMARK  229  A    between atoms: _549  and  _551
REMARK  230  A    between atoms: _551  and  _552
REMARK  231  A    between atoms: _551  and  _554
REMARK  232  A    between atoms: _554  and  _555
REMARK  233  A    between atoms: _555  and  _556
REMARK  234  A    between atoms: _559  and  _561
REMARK  235  A    between atoms: _561  and  _562
REMARK  236  A    between atoms: _561  and  _564
REMARK  237  A    between atoms: _564  and  _565
REMARK  238  A    between atoms: _565  and  _566
REMARK  239  A    between atoms: _571  and  _573
REMARK  240  A    between atoms: _573  and  _574
REMARK  241  A    between atoms: _573  and  _576
REMARK  242  A    between atoms: _576  and  _577
REMARK  243  A    between atoms: _577  and  _578
REMARK  244  A    between atoms: _578  and  _579
REMARK  245  A    between atoms: _588  and  _590
REMARK  246  A    between atoms: _590  and  _591
REMARK                            x       y       z     vdW  Elec       q    Type
REMARK                         _______ _______ _______ _____ _____    ______ ____
ROOT
ATOM      1  O   HOH     1      11.657  23.374  51.952  0.00  0.00    +0.000 OA
ENDROOT
TORSDOF 0
REMARK  Name = ../refined-set-2016/2xpc/2xpc_pocket.pdb
REMARK  246 active torsions:
REMARK  status: ('A' for Active; 'I' for Inactive)
REMARK    1  A    between atoms: _1  and  _3
REMARK    2  A    between atoms: _3  and  _4
REMARK    3  A    between atoms: _3  and  _6
REMARK    4  A    between atoms: _6  and  _7
REMARK    5  A    between atoms: _10  and  _12
REMARK    6  A    between atoms: _12  and  _13
REMARK    7  A    between atoms: _12  and  _15
REMARK    8  A    between atoms: _15  and  _16
REMARK    9  A    between atoms: _19  and  _21
REMARK   10  A    between atoms: _21  and  _22
REMARK   11  A    between atoms: _24  and  _26
REMARK   12  A    between atoms: _26  and  _27
REMARK   13  A    between atoms: _26  and  _29
REMARK   14  A    between atoms: _29  and  _30
REMARK   15  A    between atoms: _33  and  _35
REMARK   16  A    between atoms: _35  and  _36
REMARK   17  A    between atoms: _38  and  _40
REMARK   18  A    between atoms: _40  and  _41
REMARK   19  A    between atoms: _40  and  _43
REMARK   20  A    between atoms: _43  and  _44
REMARK   21  A    between atoms: _47  and  _49
REMARK   22  A    between atoms: _49  and  _50
REMARK   23  A    between atoms: _49  and  _52
REMARK   24  A    between atoms: _52  and  _53
REMARK   25  A    between atoms: _56  and  _58
REMARK   26  A    between atoms: _58  and  _59
REMARK   27  A    between atoms: _61  and  _63
REMARK   28  A    between atoms: _63  and  _64
REMARK   29  A    between atoms: _63  and  _66
REMARK   30  A    between atoms: _66  and  _67
REMARK   31  A    between atoms: _67  and  _68
REMARK   32  A    between atoms: _70  and  _72
REMARK   33  A    between atoms: _72  and  _73
REMARK   34  A    between atoms: _72  and  _75
REMARK   35  A    between atoms: _75  and  _76
REMARK   36  A    between atoms: _79  and  _81
REMARK   37  A    between atoms: _81  and  _82
REMARK   38  A    between atoms: _81  and  _84
REMARK   39  A    between atoms: _84  and  _85
REMARK   40  A    between atoms: _88  and  _90
REMARK   41  A    between atoms: _90  and  _91
REMARK   42  A    between atoms: _90  and  _93
REMARK   43  A    between atoms: _93  and  _94
REMARK   44  A    between atoms: _94  and  _95
REMARK   45  A    between atoms: _95  and  _96
REMARK   46  A    between atoms: _106  and  _107
REMARK   47  A    between atoms: _113  and  _114
REMARK   48  A    between atoms: _119  and  _121
REMARK   49  A    between atoms: _121  and  _122
REMARK   50  A    between atoms: _121  and  _124
REMARK   51  A    between atoms: _124  and  _125
REMARK   52  A    between atoms: _130  and  _132
REMARK   53  A    between atoms: _132  and  _133
REMARK   54  A    between atoms: _135  and  _137
REMARK   55  A    between atoms: _137  and  _138
REMARK   56  A    between atoms: _137  and  _140
REMARK   57  A    between atoms: _140  and  _141
REMARK   58  A    between atoms: _143  and  _145
REMARK   59  A    between atoms: _145  and  _146
REMARK   60  A    between atoms: _145  and  _148
REMARK   61  A    between atoms: _148  and  _149
REMARK   62  A    between atoms: _152  and  _154
REMARK   63  A    between atoms: _154  and  _155
REMARK   64  A    between atoms: _154  and  _157
REMARK   65  A    between atoms: _157  and  _158
REMARK   66  A    between atoms: _163  and  _165
REMARK   67  A    between atoms: _165  and  _166
REMARK   68  A    between atoms: _169  and  _171
REMARK   69  A    between atoms: _171  and  _172
REMARK   70  A    between atoms: _171  and  _174
REMARK   71  A    between atoms: _174  and  _175
REMARK   72  A    between atoms: _178  and  _179
REMARK   73  A    between atoms: _184  and  _186
REMARK   74  A    between atoms: _186  and  _187
REMARK   75  A    between atoms: _189  and  _191
REMARK   76  A    between atoms: _191  and  _192
REMARK   77  A    between atoms: _191  and  _194
REMARK   78  A    between atoms: _194  and  _195
REMARK   79  A    between atoms: _198  and  _200
REMARK   80  A    between atoms: _200  and  _201
REMARK   81  A    between atoms: _204  and  _206
REMARK   82  A    between atoms: _206  and  _207
REMARK   83  A    between atoms: _206  and  _209
REMARK   84  A    between atoms: _209  and  _210
REMARK   85  A    between atoms: _215  and  _217
REMARK   86  A    between atoms: _217  and  _218
REMARK   87  A    between atoms: _217  and  _220
REMARK   88  A    between atoms: _220  and  _221
REMARK   89  A    between atoms: _223  and  _225
REMARK   90  A    between atoms: _225  and  _226
REMARK   91  A    between atoms: _225  and  _228
REMARK   92  A    between atoms: _228  and  _229
REMARK   93  A    between atoms: _229  and  _230
REMARK   94  A    between atoms: _230  and  _231
REMARK   95  A    between atoms: _231  and  _232
REMARK   96  A    between atoms: _236  and  _238
REMARK   97  A    between atoms: _238  and  _239
REMARK   98  A    between atoms: _238  and  _241
REMARK   99  A    between atoms: _241  and  _242
REMARK  100  A    between atoms: _247  and  _249
REMARK  101  A    between atoms: _249  and  _250
REMARK  102  A    between atoms: _249  and  _252
REMARK  103  A    between atoms: _252  and  _253
REMARK  104  A    between atoms: _255  and  _257
REMARK  105  A    between atoms: _257  and  _258
REMARK  106  A    between atoms: _257  and  _260
REMARK  107  A    between atoms: _260  and  _261
REMARK  108  A    between atoms: _263  and  _265
REMARK  109  A    between atoms: _265  and  _266
REMARK  110  A    between atoms: _265  and  _268
REMARK  111  A    between atoms: _268  and  _269
REMARK  112  A    between atoms: _275  and  _277
REMARK  113  A    between atoms: _277  and  _278
REMARK  114  A    between atoms: _277  and  _280
REMARK  115  A    between atoms: _280  and  _281
REMARK  116  A    between atoms: _281  and  _282
REMARK  117  A    between atoms: _287  and  _289
REMARK  118  A    between atoms: _289  and  _290
REMARK  119  A    between atoms: _289  and  _292
REMARK  120  A    between atoms: _292  and  _293
REMARK  121  A    between atoms: _296  and  _298
REMARK  122  A    between atoms: _298  and  _299
REMARK  123  A    between atoms: _298  and  _301
REMARK  124  A    between atoms: _301  and  _302
REMARK  125  A    between atoms: _307  and  _309
REMARK  126  A    between atoms: _309  and  _310
REMARK  127  A    between atoms: _309  and  _312
REMARK  128  A    between atoms: _312  and  _313
REMARK  129  A    between atoms: _313  and  _314
REMARK  130  A    between atoms: _316  and  _318
REMARK  131  A    between atoms: _318  and  _319
REMARK  132  A    between atoms: _318  and  _321
REMARK  133  A    between atoms: _321  and  _322
REMARK  134  A    between atoms: _325  and  _327
REMARK  135  A    between atoms: _327  and  _328
REMARK  136  A    between atoms: _327  and  _330
REMARK  137  A    between atoms: _330  and  _331
REMARK  138  A    between atoms: _331  and  _332
REMARK  139  A    between atoms: _332  and  _333
REMARK  140  A    between atoms: _342  and  _344
REMARK  141  A    between atoms: _344  and  _345
REMARK  142  A    between atoms: _344  and  _347
REMARK  143  A    between atoms: _347  and  _348
REMARK  144  A    between atoms: _353  and  _354
REMARK  145  A    between atoms: _356  and  _358
REMARK  146  A    between atoms: _358  and  _359
REMARK  147  A    between atoms: _358  and  _365
REMARK  148  A    between atoms: _359  and  _360
REMARK  149  A    between atoms: _360  and  _361
REMARK  150  A    between atoms: _361  and  _362
REMARK  151  A    between atoms: _362  and  _363
REMARK  152  A    between atoms: _370  and  _372
REMARK  153  A    between atoms: _372  and  _373
REMARK  154  A    between atoms: _372  and  _375
REMARK  155  A    between atoms: _375  and  _376
REMARK  156  A    between atoms: _378  and  _380
REMARK  157  A    between atoms: _380  and  _381
REMARK  158  A    between atoms: _380  and  _383
REMARK  159  A    between atoms: _383  and  _384
REMARK  160  A    between atoms: _384  and  _385
REMARK  161  A    between atoms: _385  and  _386
REMARK  162  A    between atoms: _386  and  _387
REMARK  163  A    between atoms: _391  and  _393
REMARK  164  A    between atoms: _393  and  _394
REMARK  165  A    between atoms: _397  and  _399
REMARK  166  A    between atoms: _399  and  _400
REMARK  167  A    between atoms: _399  and  _402
REMARK  168  A    between atoms: _402  and  _403
REMARK  169  A    between atoms: _406  and  _408
REMARK  170  A    between atoms: _408  and  _409
REMARK  171  A    between atoms: _408  and  _411
REMARK  172  A    between atoms: _411  and  _412
REMARK  173  A    between atoms: _417  and  _419
REMARK  174  A    between atoms: _419  and  _420
REMARK  175  A    between atoms: _419  and  _422
REMARK  176  A    between atoms: _422  and  _423
REMARK  177  A    between atoms: _426  and  _428
REMARK  178  A    between atoms: _428  and  _429
REMARK  179  A    between atoms: _431  and  _433
REMARK  180  A    between atoms: _433  and  _434
REMARK  181  A    between atoms: _433  and  _436
REMARK  182  A    between atoms: _436  and  _437
REMARK  183  A    between atoms: _437  and  _438
REMARK  184  A    between atoms: _438  and  _439
REMARK  185  A    between atoms: _439  and  _440
REMARK  186  A    between atoms: _444  and  _446
REMARK  187  A    between atoms: _446  and  _447
REMARK  188  A    between atoms: _450  and  _452
REMARK  189  A    between atoms: _452  and  _453
REMARK  190  A    between atoms: _452  and  _455
REMARK  191  A    between atoms: _457  and  _459
REMARK  192  A    between atoms: _459  and  _460
REMARK  193  A    between atoms: _463  and  _465
REMARK  194  A    between atoms: _465  and  _466
REMARK  195  A    between atoms: _465  and  _468
REMARK  196  A    between atoms: _468  and  _469
REMARK  197  A    between atoms: _471  and  _473
REMARK  198  A    between atoms: _473  and  _474
REMARK  199  A    between atoms: _473  and  _476
REMARK  200  A    between atoms: _476  and  _477
REMARK  201  A    between atoms: _480  and  _482
REMARK  202  A    between atoms: _482  and  _483
REMARK  203  A    between atoms: _482  and  _485
REMARK  204  A    between atoms: _485  and  _486
REMARK  205  A    between atoms: _489  and  _491
REMARK  206  A    between atoms: _491  and  _492
REMARK  207  A    between atoms: _491  and  _494
REMARK  208  A    between atoms: _494  and  _495
REMARK  209  A    between atoms: _495  and  _496
REMARK  210  A    between atoms: _501  and  _503
REMARK  211  A    between atoms: _503  and  _504
REMARK  212  A    between atoms: _503  and  _506
REMARK  213  A    between atoms: _506  and  _507
REMARK  214  A    between atoms: _513  and  _515
REMARK  215  A    between atoms: _515  and  _516
REMARK  216  A    between atoms: _515  and  _518
REMARK  217  A    between atoms: _518  and  _519
REMARK  218  A    between atoms: _519  and  _520
REMARK  219  A    between atoms: _520  and  _521
REMARK  220  A    between atoms: _521  and  _522
REMARK  221  A    between atoms: _526  and  _528
REMARK  222  A    between atoms: _528  and  _529
REMARK  223  A    between atoms: _528  and  _531
REMARK  224  A    between atoms: _531  and  _532
REMARK  225  A    between atoms: _537  and  _539
REMARK  226  A    between atoms: _539  and  _540
REMARK  227  A    between atoms: _539  and  _542
REMARK  228  A    between atoms: _542  and  _543
REMARK  229  A    between atoms: _549  and  _551
REMARK  230  A    between atoms: _551  and  _552
REMARK  231  A    between atoms: _551  and  _554
REMARK  232  A    between atoms: _554  and  _555
REMARK  233  A    between atoms: _555  and  _556
REMARK  234  A    between atoms: _559  and  _561
REMARK  235  A    between atoms: _561  and  _562
REMARK  236  A    between atoms: _561  and  _564
REMARK  237  A    between atoms: _564  and  _565
REMARK  238  A    between atoms: _565  and  _566
REMARK  239  A    between atoms: _571  and  _573
REMARK  240  A    between atoms: _573  and  _574
REMARK  241  A    between atoms: _573  and  _576
REMARK  242  A    between atoms: _576  and  _577
REMARK  243  A    between atoms: _577  and  _578
REMARK  244  A    between atoms: _578  and  _579
REMARK  245  A    between atoms: _588  and  _590
REMARK  246  A    between atoms: _590  and  _591
REMARK                            x       y       z     vdW  Elec       q    Type
REMARK                         _______ _______ _______ _____ _____    ______ ____
ROOT
ATOM      1  O   HOH     1       6.666  30.984  53.112  0.00  0.00    +0.000 OA
ENDROOT
TORSDOF 0
REMARK  Name = ../refined-set-2016/2xpc/2xpc_pocket.pdb
REMARK  246 active torsions:
REMARK  status: ('A' for Active; 'I' for Inactive)
REMARK    1  A    between atoms: _1  and  _3
REMARK    2  A    between atoms: _3  and  _4
REMARK    3  A    between atoms: _3  and  _6
REMARK    4  A    between atoms: _6  and  _7
REMARK    5  A    between atoms: _10  and  _12
REMARK    6  A    between atoms: _12  and  _13
REMARK    7  A    between atoms: _12  and  _15
REMARK    8  A    between atoms: _15  and  _16
REMARK    9  A    between atoms: _19  and  _21
REMARK   10  A    between atoms: _21  and  _22
REMARK   11  A    between atoms: _24  and  _26
REMARK   12  A    between atoms: _26  and  _27
REMARK   13  A    between atoms: _26  and  _29
REMARK   14  A    between atoms: _29  and  _30
REMARK   15  A    between atoms: _33  and  _35
REMARK   16  A    between atoms: _35  and  _36
REMARK   17  A    between atoms: _38  and  _40
REMARK   18  A    between atoms: _40  and  _41
REMARK   19  A    between atoms: _40  and  _43
REMARK   20  A    between atoms: _43  and  _44
REMARK   21  A    between atoms: _47  and  _49
REMARK   22  A    between atoms: _49  and  _50
REMARK   23  A    between atoms: _49  and  _52
REMARK   24  A    between atoms: _52  and  _53
REMARK   25  A    between atoms: _56  and  _58
REMARK   26  A    between atoms: _58  and  _59
REMARK   27  A    between atoms: _61  and  _63
REMARK   28  A    between atoms: _63  and  _64
REMARK   29  A    between atoms: _63  and  _66
REMARK   30  A    between atoms: _66  and  _67
REMARK   31  A    between atoms: _67  and  _68
REMARK   32  A    between atoms: _70  and  _72
REMARK   33  A    between atoms: _72  and  _73
REMARK   34  A    between atoms: _72  and  _75
REMARK   35  A    between atoms: _75  and  _76
REMARK   36  A    between atoms: _79  and  _81
REMARK   37  A    between atoms: _81  and  _82
REMARK   38  A    between atoms: _81  and  _84
REMARK   39  A    between atoms: _84  and  _85
REMARK   40  A    between atoms: _88  and  _90
REMARK   41  A    between atoms: _90  and  _91
REMARK   42  A    between atoms: _90  and  _93
REMARK   43  A    between atoms: _93  and  _94
REMARK   44  A    between atoms: _94  and  _95
REMARK   45  A    between atoms: _95  and  _96
REMARK   46  A    between atoms: _106  and  _107
REMARK   47  A    between atoms: _113  and  _114
REMARK   48  A    between atoms: _119  and  _121
REMARK   49  A    between atoms: _121  and  _122
REMARK   50  A    between atoms: _121  and  _124
REMARK   51  A    between atoms: _124  and  _125
REMARK   52  A    between atoms: _130  and  _132
REMARK   53  A    between atoms: _132  and  _133
REMARK   54  A    between atoms: _135  and  _137
REMARK   55  A    between atoms: _137  and  _138
REMARK   56  A    between atoms: _137  and  _140
REMARK   57  A    between atoms: _140  and  _141
REMARK   58  A    between atoms: _143  and  _145
REMARK   59  A    between atoms: _145  and  _146
REMARK   60  A    between atoms: _145  and  _148
REMARK   61  A    between atoms: _148  and  _149
REMARK   62  A    between atoms: _152  and  _154
REMARK   63  A    between atoms: _154  and  _155
REMARK   64  A    between atoms: _154  and  _157
REMARK   65  A    between atoms: _157  and  _158
REMARK   66  A    between atoms: _163  and  _165
REMARK   67  A    between atoms: _165  and  _166
REMARK   68  A    between atoms: _169  and  _171
REMARK   69  A    between atoms: _171  and  _172
REMARK   70  A    between atoms: _171  and  _174
REMARK   71  A    between atoms: _174  and  _175
REMARK   72  A    between atoms: _178  and  _179
REMARK   73  A    between atoms: _184  and  _186
REMARK   74  A    between atoms: _186  and  _187
REMARK   75  A    between atoms: _189  and  _191
REMARK   76  A    between atoms: _191  and  _192
REMARK   77  A    between atoms: _191  and  _194
REMARK   78  A    between atoms: _194  and  _195
REMARK   79  A    between atoms: _198  and  _200
REMARK   80  A    between atoms: _200  and  _201
REMARK   81  A    between atoms: _204  and  _206
REMARK   82  A    between atoms: _206  and  _207
REMARK   83  A    between atoms: _206  and  _209
REMARK   84  A    between atoms: _209  and  _210
REMARK   85  A    between atoms: _215  and  _217
REMARK   86  A    between atoms: _217  and  _218
REMARK   87  A    between atoms: _217  and  _220
REMARK   88  A    between atoms: _220  and  _221
REMARK   89  A    between atoms: _223  and  _225
REMARK   90  A    between atoms: _225  and  _226
REMARK   91  A    between atoms: _225  and  _228
REMARK   92  A    between atoms: _228  and  _229
REMARK   93  A    between atoms: _229  and  _230
REMARK   94  A    between atoms: _230  and  _231
REMARK   95  A    between atoms: _231  and  _232
REMARK   96  A    between atoms: _236  and  _238
REMARK   97  A    between atoms: _238  and  _239
REMARK   98  A    between atoms: _238  and  _241
REMARK   99  A    between atoms: _241  and  _242
REMARK  100  A    between atoms: _247  and  _249
REMARK  101  A    between atoms: _249  and  _250
REMARK  102  A    between atoms: _249  and  _252
REMARK  103  A    between atoms: _252  and  _253
REMARK  104  A    between atoms: _255  and  _257
REMARK  105  A    between atoms: _257  and  _258
REMARK  106  A    between atoms: _257  and  _260
REMARK  107  A    between atoms: _260  and  _261
REMARK  108  A    between atoms: _263  and  _265
REMARK  109  A    between atoms: _265  and  _266
REMARK  110  A    between atoms: _265  and  _268
REMARK  111  A    between atoms: _268  and  _269
REMARK  112  A    between atoms: _275  and  _277
REMARK  113  A    between atoms: _277  and  _278
REMARK  114  A    between atoms: _277  and  _280
REMARK  115  A    between atoms: _280  and  _281
REMARK  116  A    between atoms: _281  and  _282
REMARK  117  A    between atoms: _287  and  _289
REMARK  118  A    between atoms: _289  and  _290
REMARK  119  A    between atoms: _289  and  _292
REMARK  120  A    between atoms: _292  and  _293
REMARK  121  A    between atoms: _296  and  _298
REMARK  122  A    between atoms: _298  and  _299
REMARK  123  A    between atoms: _298  and  _301
REMARK  124  A    between atoms: _301  and  _302
REMARK  125  A    between atoms: _307  and  _309
REMARK  126  A    between atoms: _309  and  _310
REMARK  127  A    between atoms: _309  and  _312
REMARK  128  A    between atoms: _312  and  _313
REMARK  129  A    between atoms: _313  and  _314
REMARK  130  A    between atoms: _316  and  _318
REMARK  131  A    between atoms: _318  and  _319
REMARK  132  A    between atoms: _318  and  _321
REMARK  133  A    between atoms: _321  and  _322
REMARK  134  A    between atoms: _325  and  _327
REMARK  135  A    between atoms: _327  and  _328
REMARK  136  A    between atoms: _327  and  _330
REMARK  137  A    between atoms: _330  and  _331
REMARK  138  A    between atoms: _331  and  _332
REMARK  139  A    between atoms: _332  and  _333
REMARK  140  A    between atoms: _342  and  _344
REMARK  141  A    between atoms: _344  and  _345
REMARK  142  A    between atoms: _344  and  _347
REMARK  143  A    between atoms: _347  and  _348
REMARK  144  A    between atoms: _353  and  _354
REMARK  145  A    between atoms: _356  and  _358
REMARK  146  A    between atoms: _358  and  _359
REMARK  147  A    between atoms: _358  and  _365
REMARK  148  A    between atoms: _359  and  _360
REMARK  149  A    between atoms: _360  and  _361
REMARK  150  A    between atoms: _361  and  _362
REMARK  151  A    between atoms: _362  and  _363
REMARK  152  A    between atoms: _370  and  _372
REMARK  153  A    between atoms: _372  and  _373
REMARK  154  A    between atoms: _372  and  _375
REMARK  155  A    between atoms: _375  and  _376
REMARK  156  A    between atoms: _378  and  _380
REMARK  157  A    between atoms: _380  and  _381
REMARK  158  A    between atoms: _380  and  _383
REMARK  159  A    between atoms: _383  and  _384
REMARK  160  A    between atoms: _384  and  _385
REMARK  161  A    between atoms: _385  and  _386
REMARK  162  A    between atoms: _386  and  _387
REMARK  163  A    between atoms: _391  and  _393
REMARK  164  A    between atoms: _393  and  _394
REMARK  165  A    between atoms: _397  and  _399
REMARK  166  A    between atoms: _399  and  _400
REMARK  167  A    between atoms: _399  and  _402
REMARK  168  A    between atoms: _402  and  _403
REMARK  169  A    between atoms: _406  and  _408
REMARK  170  A    between atoms: _408  and  _409
REMARK  171  A    between atoms: _408  and  _411
REMARK  172  A    between atoms: _411  and  _412
REMARK  173  A    between atoms: _417  and  _419
REMARK  174  A    between atoms: _419  and  _420
REMARK  175  A    between atoms: _419  and  _422
REMARK  176  A    between atoms: _422  and  _423
REMARK  177  A    between atoms: _426  and  _428
REMARK  178  A    between atoms: _428  and  _429
REMARK  179  A    between atoms: _431  and  _433
REMARK  180  A    between atoms: _433  and  _434
REMARK  181  A    between atoms: _433  and  _436
REMARK  182  A    between atoms: _436  and  _437
REMARK  183  A    between atoms: _437  and  _438
REMARK  184  A    between atoms: _438  and  _439
REMARK  185  A    between atoms: _439  and  _440
REMARK  186  A    between atoms: _444  and  _446
REMARK  187  A    between atoms: _446  and  _447
REMARK  188  A    between atoms: _450  and  _452
REMARK  189  A    between atoms: _452  and  _453
REMARK  190  A    between atoms: _452  and  _455
REMARK  191  A    between atoms: _457  and  _459
REMARK  192  A    between atoms: _459  and  _460
REMARK  193  A    between atoms: _463  and  _465
REMARK  194  A    between atoms: _465  and  _466
REMARK  195  A    between atoms: _465  and  _468
REMARK  196  A    between atoms: _468  and  _469
REMARK  197  A    between atoms: _471  and  _473
REMARK  198  A    between atoms: _473  and  _474
REMARK  199  A    between atoms: _473  and  _476
REMARK  200  A    between atoms: _476  and  _477
REMARK  201  A    between atoms: _480  and  _482
REMARK  202  A    between atoms: _482  and  _483
REMARK  203  A    between atoms: _482  and  _485
REMARK  204  A    between atoms: _485  and  _486
REMARK  205  A    between atoms: _489  and  _491
REMARK  206  A    between atoms: _491  and  _492
REMARK  207  A    between atoms: _491  and  _494
REMARK  208  A    between atoms: _494  and  _495
REMARK  209  A    between atoms: _495  and  _496
REMARK  210  A    between atoms: _501  and  _503
REMARK  211  A    between atoms: _503  and  _504
REMARK  212  A    between atoms: _503  and  _506
REMARK  213  A    between atoms: _506  and  _507
REMARK  214  A    between atoms: _513  and  _515
REMARK  215  A    between atoms: _515  and  _516
REMARK  216  A    between atoms: _515  and  _518
REMARK  217  A    between atoms: _518  and  _519
REMARK  218  A    between atoms: _519  and  _520
REMARK  219  A    between atoms: _520  and  _521
REMARK  220  A    between atoms: _521  and  _522
REMARK  221  A    between atoms: _526  and  _528
REMARK  222  A    between atoms: _528  and  _529
REMARK  223  A    between atoms: _528  and  _531
REMARK  224  A    between atoms: _531  and  _532
REMARK  225  A    between atoms: _537  and  _539
REMARK  226  A    between atoms: _539  and  _540
REMARK  227  A    between atoms: _539  and  _542
REMARK  228  A    between atoms: _542  and  _543
REMARK  229  A    between atoms: _549  and  _551
REMARK  230  A    between atoms: _551  and  _552
REMARK  231  A    between atoms: _551  and  _554
REMARK  232  A    between atoms: _554  and  _555
REMARK  233  A    between atoms: _555  and  _556
REMARK  234  A    between atoms: _559  and  _561
REMARK  235  A    between atoms: _561  and  _562
REMARK  236  A    between atoms: _561  and  _564
REMARK  237  A    between atoms: _564  and  _565
REMARK  238  A    between atoms: _565  and  _566
REMARK  239  A    between atoms: _571  and  _573
REMARK  240  A    between atoms: _573  and  _574
REMARK  241  A    between atoms: _573  and  _576
REMARK  242  A    between atoms: _576  and  _577
REMARK  243  A    between atoms: _577  and  _578
REMARK  244  A    between atoms: _578  and  _579
REMARK  245  A    between atoms: _588  and  _590
REMARK  246  A    between atoms: _590  and  _591
REMARK                            x       y       z     vdW  Elec       q    Type
REMARK                         _______ _______ _______ _____ _____    ______ ____
ROOT
ATOM      1  O   HOH     1      19.596  27.458  55.335  0.00  0.00    +0.000 OA
ENDROOT
TORSDOF 0
REMARK  Name = ../refined-set-2016/2xpc/2xpc_pocket.pdb
REMARK  246 active torsions:
REMARK  status: ('A' for Active; 'I' for Inactive)
REMARK    1  A    between atoms: _1  and  _3
REMARK    2  A    between atoms: _3  and  _4
REMARK    3  A    between atoms: _3  and  _6
REMARK    4  A    between atoms: _6  and  _7
REMARK    5  A    between atoms: _10  and  _12
REMARK    6  A    between atoms: _12  and  _13
REMARK    7  A    between atoms: _12  and  _15
REMARK    8  A    between atoms: _15  and  _16
REMARK    9  A    between atoms: _19  and  _21
REMARK   10  A    between atoms: _21  and  _22
REMARK   11  A    between atoms: _24  and  _26
REMARK   12  A    between atoms: _26  and  _27
REMARK   13  A    between atoms: _26  and  _29
REMARK   14  A    between atoms: _29  and  _30
REMARK   15  A    between atoms: _33  and  _35
REMARK   16  A    between atoms: _35  and  _36
REMARK   17  A    between atoms: _38  and  _40
REMARK   18  A    between atoms: _40  and  _41
REMARK   19  A    between atoms: _40  and  _43
REMARK   20  A    between atoms: _43  and  _44
REMARK   21  A    between atoms: _47  and  _49
REMARK   22  A    between atoms: _49  and  _50
REMARK   23  A    between atoms: _49  and  _52
REMARK   24  A    between atoms: _52  and  _53
REMARK   25  A    between atoms: _56  and  _58
REMARK   26  A    between atoms: _58  and  _59
REMARK   27  A    between atoms: _61  and  _63
REMARK   28  A    between atoms: _63  and  _64
REMARK   29  A    between atoms: _63  and  _66
REMARK   30  A    between atoms: _66  and  _67
REMARK   31  A    between atoms: _67  and  _68
REMARK   32  A    between atoms: _70  and  _72
REMARK   33  A    between atoms: _72  and  _73
REMARK   34  A    between atoms: _72  and  _75
REMARK   35  A    between atoms: _75  and  _76
REMARK   36  A    between atoms: _79  and  _81
REMARK   37  A    between atoms: _81  and  _82
REMARK   38  A    between atoms: _81  and  _84
REMARK   39  A    between atoms: _84  and  _85
REMARK   40  A    between atoms: _88  and  _90
REMARK   41  A    between atoms: _90  and  _91
REMARK   42  A    between atoms: _90  and  _93
REMARK   43  A    between atoms: _93  and  _94
REMARK   44  A    between atoms: _94  and  _95
REMARK   45  A    between atoms: _95  and  _96
REMARK   46  A    between atoms: _106  and  _107
REMARK   47  A    between atoms: _113  and  _114
REMARK   48  A    between atoms: _119  and  _121
REMARK   49  A    between atoms: _121  and  _122
REMARK   50  A    between atoms: _121  and  _124
REMARK   51  A    between atoms: _124  and  _125
REMARK   52  A    between atoms: _130  and  _132
REMARK   53  A    between atoms: _132  and  _133
REMARK   54  A    between atoms: _135  and  _137
REMARK   55  A    between atoms: _137  and  _138
REMARK   56  A    between atoms: _137  and  _140
REMARK   57  A    between atoms: _140  and  _141
REMARK   58  A    between atoms: _143  and  _145
REMARK   59  A    between atoms: _145  and  _146
REMARK   60  A    between atoms: _145  and  _148
REMARK   61  A    between atoms: _148  and  _149
REMARK   62  A    between atoms: _152  and  _154
REMARK   63  A    between atoms: _154  and  _155
REMARK   64  A    between atoms: _154  and  _157
REMARK   65  A    between atoms: _157  and  _158
REMARK   66  A    between atoms: _163  and  _165
REMARK   67  A    between atoms: _165  and  _166
REMARK   68  A    between atoms: _169  and  _171
REMARK   69  A    between atoms: _171  and  _172
REMARK   70  A    between atoms: _171  and  _174
REMARK   71  A    between atoms: _174  and  _175
REMARK   72  A    between atoms: _178  and  _179
REMARK   73  A    between atoms: _184  and  _186
REMARK   74  A    between atoms: _186  and  _187
REMARK   75  A    between atoms: _189  and  _191
REMARK   76  A    between atoms: _191  and  _192
REMARK   77  A    between atoms: _191  and  _194
REMARK   78  A    between atoms: _194  and  _195
REMARK   79  A    between atoms: _198  and  _200
REMARK   80  A    between atoms: _200  and  _201
REMARK   81  A    between atoms: _204  and  _206
REMARK   82  A    between atoms: _206  and  _207
REMARK   83  A    between atoms: _206  and  _209
REMARK   84  A    between atoms: _209  and  _210
REMARK   85  A    between atoms: _215  and  _217
REMARK   86  A    between atoms: _217  and  _218
REMARK   87  A    between atoms: _217  and  _220
REMARK   88  A    between atoms: _220  and  _221
REMARK   89  A    between atoms: _223  and  _225
REMARK   90  A    between atoms: _225  and  _226
REMARK   91  A    between atoms: _225  and  _228
REMARK   92  A    between atoms: _228  and  _229
REMARK   93  A    between atoms: _229  and  _230
REMARK   94  A    between atoms: _230  and  _231
REMARK   95  A    between atoms: _231  and  _232
REMARK   96  A    between atoms: _236  and  _238
REMARK   97  A    between atoms: _238  and  _239
REMARK   98  A    between atoms: _238  and  _241
REMARK   99  A    between atoms: _241  and  _242
REMARK  100  A    between atoms: _247  and  _249
REMARK  101  A    between atoms: _249  and  _250
REMARK  102  A    between atoms: _249  and  _252
REMARK  103  A    between atoms: _252  and  _253
REMARK  104  A    between atoms: _255  and  _257
REMARK  105  A    between atoms: _257  and  _258
REMARK  106  A    between atoms: _257  and  _260
REMARK  107  A    between atoms: _260  and  _261
REMARK  108  A    between atoms: _263  and  _265
REMARK  109  A    between atoms: _265  and  _266
REMARK  110  A    between atoms: _265  and  _268
REMARK  111  A    between atoms: _268  and  _269
REMARK  112  A    between atoms: _275  and  _277
REMARK  113  A    between atoms: _277  and  _278
REMARK  114  A    between atoms: _277  and  _280
REMARK  115  A    between atoms: _280  and  _281
REMARK  116  A    between atoms: _281  and  _282
REMARK  117  A    between atoms: _287  and  _289
REMARK  118  A    between atoms: _289  and  _290
REMARK  119  A    between atoms: _289  and  _292
REMARK  120  A    between atoms: _292  and  _293
REMARK  121  A    between atoms: _296  and  _298
REMARK  122  A    between atoms: _298  and  _299
REMARK  123  A    between atoms: _298  and  _301
REMARK  124  A    between atoms: _301  and  _302
REMARK  125  A    between atoms: _307  and  _309
REMARK  126  A    between atoms: _309  and  _310
REMARK  127  A    between atoms: _309  and  _312
REMARK  128  A    between atoms: _312  and  _313
REMARK  129  A    between atoms: _313  and  _314
REMARK  130  A    between atoms: _316  and  _318
REMARK  131  A    between atoms: _318  and  _319
REMARK  132  A    between atoms: _318  and  _321
REMARK  133  A    between atoms: _321  and  _322
REMARK  134  A    between atoms: _325  and  _327
REMARK  135  A    between atoms: _327  and  _328
REMARK  136  A    between atoms: _327  and  _330
REMARK  137  A    between atoms: _330  and  _331
REMARK  138  A    between atoms: _331  and  _332
REMARK  139  A    between atoms: _332  and  _333
REMARK  140  A    between atoms: _342  and  _344
REMARK  141  A    between atoms: _344  and  _345
REMARK  142  A    between atoms: _344  and  _347
REMARK  143  A    between atoms: _347  and  _348
REMARK  144  A    between atoms: _353  and  _354
REMARK  145  A    between atoms: _356  and  _358
REMARK  146  A    between atoms: _358  and  _359
REMARK  147  A    between atoms: _358  and  _365
REMARK  148  A    between atoms: _359  and  _360
REMARK  149  A    between atoms: _360  and  _361
REMARK  150  A    between atoms: _361  and  _362
REMARK  151  A    between atoms: _362  and  _363
REMARK  152  A    between atoms: _370  and  _372
REMARK  153  A    between atoms: _372  and  _373
REMARK  154  A    between atoms: _372  and  _375
REMARK  155  A    between atoms: _375  and  _376
REMARK  156  A    between atoms: _378  and  _380
REMARK  157  A    between atoms: _380  and  _381
REMARK  158  A    between atoms: _380  and  _383
REMARK  159  A    between atoms: _383  and  _384
REMARK  160  A    between atoms: _384  and  _385
REMARK  161  A    between atoms: _385  and  _386
REMARK  162  A    between atoms: _386  and  _387
REMARK  163  A    between atoms: _391  and  _393
REMARK  164  A    between atoms: _393  and  _394
REMARK  165  A    between atoms: _397  and  _399
REMARK  166  A    between atoms: _399  and  _400
REMARK  167  A    between atoms: _399  and  _402
REMARK  168  A    between atoms: _402  and  _403
REMARK  169  A    between atoms: _406  and  _408
REMARK  170  A    between atoms: _408  and  _409
REMARK  171  A    between atoms: _408  and  _411
REMARK  172  A    between atoms: _411  and  _412
REMARK  173  A    between atoms: _417  and  _419
REMARK  174  A    between atoms: _419  and  _420
REMARK  175  A    between atoms: _419  and  _422
REMARK  176  A    between atoms: _422  and  _423
REMARK  177  A    between atoms: _426  and  _428
REMARK  178  A    between atoms: _428  and  _429
REMARK  179  A    between atoms: _431  and  _433
REMARK  180  A    between atoms: _433  and  _434
REMARK  181  A    between atoms: _433  and  _436
REMARK  182  A    between atoms: _436  and  _437
REMARK  183  A    between atoms: _437  and  _438
REMARK  184  A    between atoms: _438  and  _439
REMARK  185  A    between atoms: _439  and  _440
REMARK  186  A    between atoms: _444  and  _446
REMARK  187  A    between atoms: _446  and  _447
REMARK  188  A    between atoms: _450  and  _452
REMARK  189  A    between atoms: _452  and  _453
REMARK  190  A    between atoms: _452  and  _455
REMARK  191  A    between atoms: _457  and  _459
REMARK  192  A    between atoms: _459  and  _460
REMARK  193  A    between atoms: _463  and  _465
REMARK  194  A    between atoms: _465  and  _466
REMARK  195  A    between atoms: _465  and  _468
REMARK  196  A    between atoms: _468  and  _469
REMARK  197  A    between atoms: _471  and  _473
REMARK  198  A    between atoms: _473  and  _474
REMARK  199  A    between atoms: _473  and  _476
REMARK  200  A    between atoms: _476  and  _477
REMARK  201  A    between atoms: _480  and  _482
REMARK  202  A    between atoms: _482  and  _483
REMARK  203  A    between atoms: _482  and  _485
REMARK  204  A    between atoms: _485  and  _486
REMARK  205  A    between atoms: _489  and  _491
REMARK  206  A    between atoms: _491  and  _492
REMARK  207  A    between atoms: _491  and  _494
REMARK  208  A    between atoms: _494  and  _495
REMARK  209  A    between atoms: _495  and  _496
REMARK  210  A    between atoms: _501  and  _503
REMARK  211  A    between atoms: _503  and  _504
REMARK  212  A    between atoms: _503  and  _506
REMARK  213  A    between atoms: _506  and  _507
REMARK  214  A    between atoms: _513  and  _515
REMARK  215  A    between atoms: _515  and  _516
REMARK  216  A    between atoms: _515  and  _518
REMARK  217  A    between atoms: _518  and  _519
REMARK  218  A    between atoms: _519  and  _520
REMARK  219  A    between atoms: _520  and  _521
REMARK  220  A    between atoms: _521  and  _522
REMARK  221  A    between atoms: _526  and  _528
REMARK  222  A    between atoms: _528  and  _529
REMARK  223  A    between atoms: _528  and  _531
REMARK  224  A    between atoms: _531  and  _532
REMARK  225  A    between atoms: _537  and  _539
REMARK  226  A    between atoms: _539  and  _540
REMARK  227  A    between atoms: _539  and  _542
REMARK  228  A    between atoms: _542  and  _543
REMARK  229  A    between atoms: _549  and  _551
REMARK  230  A    between atoms: _551  and  _552
REMARK  231  A    between atoms: _551  and  _554
REMARK  232  A    between atoms: _554  and  _555
REMARK  233  A    between atoms: _555  and  _556
REMARK  234  A    between atoms: _559  and  _561
REMARK  235  A    between atoms: _561  and  _562
REMARK  236  A    between atoms: _561  and  _564
REMARK  237  A    between atoms: _564  and  _565
REMARK  238  A    between atoms: _565  and  _566
REMARK  239  A    between atoms: _571  and  _573
REMARK  240  A    between atoms: _573  and  _574
REMARK  241  A    between atoms: _573  and  _576
REMARK  242  A    between atoms: _576  and  _577
REMARK  243  A    between atoms: _577  and  _578
REMARK  244  A    between atoms: _578  and  _579
REMARK  245  A    between atoms: _588  and  _590
REMARK  246  A    between atoms: _590  and  _591
REMARK                            x       y       z     vdW  Elec       q    Type
REMARK                         _______ _______ _______ _____ _____    ______ ____
ROOT
ATOM      1  O   HOH     1       5.614  21.413  44.464  0.00  0.00    +0.000 OA
ENDROOT
TORSDOF 0
REMARK  Name = ../refined-set-2016/2xpc/2xpc_pocket.pdb
REMARK  246 active torsions:
REMARK  status: ('A' for Active; 'I' for Inactive)
REMARK    1  A    between atoms: _1  and  _3
REMARK    2  A    between atoms: _3  and  _4
REMARK    3  A    between atoms: _3  and  _6
REMARK    4  A    between atoms: _6  and  _7
REMARK    5  A    between atoms: _10  and  _12
REMARK    6  A    between atoms: _12  and  _13
REMARK    7  A    between atoms: _12  and  _15
REMARK    8  A    between atoms: _15  and  _16
REMARK    9  A    between atoms: _19  and  _21
REMARK   10  A    between atoms: _21  and  _22
REMARK   11  A    between atoms: _24  and  _26
REMARK   12  A    between atoms: _26  and  _27
REMARK   13  A    between atoms: _26  and  _29
REMARK   14  A    between atoms: _29  and  _30
REMARK   15  A    between atoms: _33  and  _35
REMARK   16  A    between atoms: _35  and  _36
REMARK   17  A    between atoms: _38  and  _40
REMARK   18  A    between atoms: _40  and  _41
REMARK   19  A    between atoms: _40  and  _43
REMARK   20  A    between atoms: _43  and  _44
REMARK   21  A    between atoms: _47  and  _49
REMARK   22  A    between atoms: _49  and  _50
REMARK   23  A    between atoms: _49  and  _52
REMARK   24  A    between atoms: _52  and  _53
REMARK   25  A    between atoms: _56  and  _58
REMARK   26  A    between atoms: _58  and  _59
REMARK   27  A    between atoms: _61  and  _63
REMARK   28  A    between atoms: _63  and  _64
REMARK   29  A    between atoms: _63  and  _66
REMARK   30  A    between atoms: _66  and  _67
REMARK   31  A    between atoms: _67  and  _68
REMARK   32  A    between atoms: _70  and  _72
REMARK   33  A    between atoms: _72  and  _73
REMARK   34  A    between atoms: _72  and  _75
REMARK   35  A    between atoms: _75  and  _76
REMARK   36  A    between atoms: _79  and  _81
REMARK   37  A    between atoms: _81  and  _82
REMARK   38  A    between atoms: _81  and  _84
REMARK   39  A    between atoms: _84  and  _85
REMARK   40  A    between atoms: _88  and  _90
REMARK   41  A    between atoms: _90  and  _91
REMARK   42  A    between atoms: _90  and  _93
REMARK   43  A    between atoms: _93  and  _94
REMARK   44  A    between atoms: _94  and  _95
REMARK   45  A    between atoms: _95  and  _96
REMARK   46  A    between atoms: _106  and  _107
REMARK   47  A    between atoms: _113  and  _114
REMARK   48  A    between atoms: _119  and  _121
REMARK   49  A    between atoms: _121  and  _122
REMARK   50  A    between atoms: _121  and  _124
REMARK   51  A    between atoms: _124  and  _125
REMARK   52  A    between atoms: _130  and  _132
REMARK   53  A    between atoms: _132  and  _133
REMARK   54  A    between atoms: _135  and  _137
REMARK   55  A    between atoms: _137  and  _138
REMARK   56  A    between atoms: _137  and  _140
REMARK   57  A    between atoms: _140  and  _141
REMARK   58  A    between atoms: _143  and  _145
REMARK   59  A    between atoms: _145  and  _146
REMARK   60  A    between atoms: _145  and  _148
REMARK   61  A    between atoms: _148  and  _149
REMARK   62  A    between atoms: _152  and  _154
REMARK   63  A    between atoms: _154  and  _155
REMARK   64  A    between atoms: _154  and  _157
REMARK   65  A    between atoms: _157  and  _158
REMARK   66  A    between atoms: _163  and  _165
REMARK   67  A    between atoms: _165  and  _166
REMARK   68  A    between atoms: _169  and  _171
REMARK   69  A    between atoms: _171  and  _172
REMARK   70  A    between atoms: _171  and  _174
REMARK   71  A    between atoms: _174  and  _175
REMARK   72  A    between atoms: _178  and  _179
REMARK   73  A    between atoms: _184  and  _186
REMARK   74  A    between atoms: _186  and  _187
REMARK   75  A    between atoms: _189  and  _191
REMARK   76  A    between atoms: _191  and  _192
REMARK   77  A    between atoms: _191  and  _194
REMARK   78  A    between atoms: _194  and  _195
REMARK   79  A    between atoms: _198  and  _200
REMARK   80  A    between atoms: _200  and  _201
REMARK   81  A    between atoms: _204  and  _206
REMARK   82  A    between atoms: _206  and  _207
REMARK   83  A    between atoms: _206  and  _209
REMARK   84  A    between atoms: _209  and  _210
REMARK   85  A    between atoms: _215  and  _217
REMARK   86  A    between atoms: _217  and  _218
REMARK   87  A    between atoms: _217  and  _220
REMARK   88  A    between atoms: _220  and  _221
REMARK   89  A    between atoms: _223  and  _225
REMARK   90  A    between atoms: _225  and  _226
REMARK   91  A    between atoms: _225  and  _228
REMARK   92  A    between atoms: _228  and  _229
REMARK   93  A    between atoms: _229  and  _230
REMARK   94  A    between atoms: _230  and  _231
REMARK   95  A    between atoms: _231  and  _232
REMARK   96  A    between atoms: _236  and  _238
REMARK   97  A    between atoms: _238  and  _239
REMARK   98  A    between atoms: _238  and  _241
REMARK   99  A    between atoms: _241  and  _242
REMARK  100  A    between atoms: _247  and  _249
REMARK  101  A    between atoms: _249  and  _250
REMARK  102  A    between atoms: _249  and  _252
REMARK  103  A    between atoms: _252  and  _253
REMARK  104  A    between atoms: _255  and  _257
REMARK  105  A    between atoms: _257  and  _258
REMARK  106  A    between atoms: _257  and  _260
REMARK  107  A    between atoms: _260  and  _261
REMARK  108  A    between atoms: _263  and  _265
REMARK  109  A    between atoms: _265  and  _266
REMARK  110  A    between atoms: _265  and  _268
REMARK  111  A    between atoms: _268  and  _269
REMARK  112  A    between atoms: _275  and  _277
REMARK  113  A    between atoms: _277  and  _278
REMARK  114  A    between atoms: _277  and  _280
REMARK  115  A    between atoms: _280  and  _281
REMARK  116  A    between atoms: _281  and  _282
REMARK  117  A    between atoms: _287  and  _289
REMARK  118  A    between atoms: _289  and  _290
REMARK  119  A    between atoms: _289  and  _292
REMARK  120  A    between atoms: _292  and  _293
REMARK  121  A    between atoms: _296  and  _298
REMARK  122  A    between atoms: _298  and  _299
REMARK  123  A    between atoms: _298  and  _301
REMARK  124  A    between atoms: _301  and  _302
REMARK  125  A    between atoms: _307  and  _309
REMARK  126  A    between atoms: _309  and  _310
REMARK  127  A    between atoms: _309  and  _312
REMARK  128  A    between atoms: _312  and  _313
REMARK  129  A    between atoms: _313  and  _314
REMARK  130  A    between atoms: _316  and  _318
REMARK  131  A    between atoms: _318  and  _319
REMARK  132  A    between atoms: _318  and  _321
REMARK  133  A    between atoms: _321  and  _322
REMARK  134  A    between atoms: _325  and  _327
REMARK  135  A    between atoms: _327  and  _328
REMARK  136  A    between atoms: _327  and  _330
REMARK  137  A    between atoms: _330  and  _331
REMARK  138  A    between atoms: _331  and  _332
REMARK  139  A    between atoms: _332  and  _333
REMARK  140  A    between atoms: _342  and  _344
REMARK  141  A    between atoms: _344  and  _345
REMARK  142  A    between atoms: _344  and  _347
REMARK  143  A    between atoms: _347  and  _348
REMARK  144  A    between atoms: _353  and  _354
REMARK  145  A    between atoms: _356  and  _358
REMARK  146  A    between atoms: _358  and  _359
REMARK  147  A    between atoms: _358  and  _365
REMARK  148  A    between atoms: _359  and  _360
REMARK  149  A    between atoms: _360  and  _361
REMARK  150  A    between atoms: _361  and  _362
REMARK  151  A    between atoms: _362  and  _363
REMARK  152  A    between atoms: _370  and  _372
REMARK  153  A    between atoms: _372  and  _373
REMARK  154  A    between atoms: _372  and  _375
REMARK  155  A    between atoms: _375  and  _376
REMARK  156  A    between atoms: _378  and  _380
REMARK  157  A    between atoms: _380  and  _381
REMARK  158  A    between atoms: _380  and  _383
REMARK  159  A    between atoms: _383  and  _384
REMARK  160  A    between atoms: _384  and  _385
REMARK  161  A    between atoms: _385  and  _386
REMARK  162  A    between atoms: _386  and  _387
REMARK  163  A    between atoms: _391  and  _393
REMARK  164  A    between atoms: _393  and  _394
REMARK  165  A    between atoms: _397  and  _399
REMARK  166  A    between atoms: _399  and  _400
REMARK  167  A    between atoms: _399  and  _402
REMARK  168  A    between atoms: _402  and  _403
REMARK  169  A    between atoms: _406  and  _408
REMARK  170  A    between atoms: _408  and  _409
REMARK  171  A    between atoms: _408  and  _411
REMARK  172  A    between atoms: _411  and  _412
REMARK  173  A    between atoms: _417  and  _419
REMARK  174  A    between atoms: _419  and  _420
REMARK  175  A    between atoms: _419  and  _422
REMARK  176  A    between atoms: _422  and  _423
REMARK  177  A    between atoms: _426  and  _428
REMARK  178  A    between atoms: _428  and  _429
REMARK  179  A    between atoms: _431  and  _433
REMARK  180  A    between atoms: _433  and  _434
REMARK  181  A    between atoms: _433  and  _436
REMARK  182  A    between atoms: _436  and  _437
REMARK  183  A    between atoms: _437  and  _438
REMARK  184  A    between atoms: _438  and  _439
REMARK  185  A    between atoms: _439  and  _440
REMARK  186  A    between atoms: _444  and  _446
REMARK  187  A    between atoms: _446  and  _447
REMARK  188  A    between atoms: _450  and  _452
REMARK  189  A    between atoms: _452  and  _453
REMARK  190  A    between atoms: _452  and  _455
REMARK  191  A    between atoms: _457  and  _459
REMARK  192  A    between atoms: _459  and  _460
REMARK  193  A    between atoms: _463  and  _465
REMARK  194  A    between atoms: _465  and  _466
REMARK  195  A    between atoms: _465  and  _468
REMARK  196  A    between atoms: _468  and  _469
REMARK  197  A    between atoms: _471  and  _473
REMARK  198  A    between atoms: _473  and  _474
REMARK  199  A    between atoms: _473  and  _476
REMARK  200  A    between atoms: _476  and  _477
REMARK  201  A    between atoms: _480  and  _482
REMARK  202  A    between atoms: _482  and  _483
REMARK  203  A    between atoms: _482  and  _485
REMARK  204  A    between atoms: _485  and  _486
REMARK  205  A    between atoms: _489  and  _491
REMARK  206  A    between atoms: _491  and  _492
REMARK  207  A    between atoms: _491  and  _494
REMARK  208  A    between atoms: _494  and  _495
REMARK  209  A    between atoms: _495  and  _496
REMARK  210  A    between atoms: _501  and  _503
REMARK  211  A    between atoms: _503  and  _504
REMARK  212  A    between atoms: _503  and  _506
REMARK  213  A    between atoms: _506  and  _507
REMARK  214  A    between atoms: _513  and  _515
REMARK  215  A    between atoms: _515  and  _516
REMARK  216  A    between atoms: _515  and  _518
REMARK  217  A    between atoms: _518  and  _519
REMARK  218  A    between atoms: _519  and  _520
REMARK  219  A    between atoms: _520  and  _521
REMARK  220  A    between atoms: _521  and  _522
REMARK  221  A    between atoms: _526  and  _528
REMARK  222  A    between atoms: _528  and  _529
REMARK  223  A    between atoms: _528  and  _531
REMARK  224  A    between atoms: _531  and  _532
REMARK  225  A    between atoms: _537  and  _539
REMARK  226  A    between atoms: _539  and  _540
REMARK  227  A    between atoms: _539  and  _542
REMARK  228  A    between atoms: _542  and  _543
REMARK  229  A    between atoms: _549  and  _551
REMARK  230  A    between atoms: _551  and  _552
REMARK  231  A    between atoms: _551  and  _554
REMARK  232  A    between atoms: _554  and  _555
REMARK  233  A    between atoms: _555  and  _556
REMARK  234  A    between atoms: _559  and  _561
REMARK  235  A    between atoms: _561  and  _562
REMARK  236  A    between atoms: _561  and  _564
REMARK  237  A    between atoms: _564  and  _565
REMARK  238  A    between atoms: _565  and  _566
REMARK  239  A    between atoms: _571  and  _573
REMARK  240  A    between atoms: _573  and  _574
REMARK  241  A    between atoms: _573  and  _576
REMARK  242  A    between atoms: _576  and  _577
REMARK  243  A    between atoms: _577  and  _578
REMARK  244  A    between atoms: _578  and  _579
REMARK  245  A    between atoms: _588  and  _590
REMARK  246  A    between atoms: _590  and  _591
REMARK                            x       y       z     vdW  Elec       q    Type
REMARK                         _______ _______ _______ _____ _____    ______ ____
ROOT
ATOM      1  O   HOH     1       5.196  24.383  49.389  0.00  0.00    +0.000 OA
ENDROOT
TORSDOF 0
REMARK  Name = ../refined-set-2016/2xpc/2xpc_pocket.pdb
REMARK  246 active torsions:
REMARK  status: ('A' for Active; 'I' for Inactive)
REMARK    1  A    between atoms: _1  and  _3
REMARK    2  A    between atoms: _3  and  _4
REMARK    3  A    between atoms: _3  and  _6
REMARK    4  A    between atoms: _6  and  _7
REMARK    5  A    between atoms: _10  and  _12
REMARK    6  A    between atoms: _12  and  _13
REMARK    7  A    between atoms: _12  and  _15
REMARK    8  A    between atoms: _15  and  _16
REMARK    9  A    between atoms: _19  and  _21
REMARK   10  A    between atoms: _21  and  _22
REMARK   11  A    between atoms: _24  and  _26
REMARK   12  A    between atoms: _26  and  _27
REMARK   13  A    between atoms: _26  and  _29
REMARK   14  A    between atoms: _29  and  _30
REMARK   15  A    between atoms: _33  and  _35
REMARK   16  A    between atoms: _35  and  _36
REMARK   17  A    between atoms: _38  and  _40
REMARK   18  A    between atoms: _40  and  _41
REMARK   19  A    between atoms: _40  and  _43
REMARK   20  A    between atoms: _43  and  _44
REMARK   21  A    between atoms: _47  and  _49
REMARK   22  A    between atoms: _49  and  _50
REMARK   23  A    between atoms: _49  and  _52
REMARK   24  A    between atoms: _52  and  _53
REMARK   25  A    between atoms: _56  and  _58
REMARK   26  A    between atoms: _58  and  _59
REMARK   27  A    between atoms: _61  and  _63
REMARK   28  A    between atoms: _63  and  _64
REMARK   29  A    between atoms: _63  and  _66
REMARK   30  A    between atoms: _66  and  _67
REMARK   31  A    between atoms: _67  and  _68
REMARK   32  A    between atoms: _70  and  _72
REMARK   33  A    between atoms: _72  and  _73
REMARK   34  A    between atoms: _72  and  _75
REMARK   35  A    between atoms: _75  and  _76
REMARK   36  A    between atoms: _79  and  _81
REMARK   37  A    between atoms: _81  and  _82
REMARK   38  A    between atoms: _81  and  _84
REMARK   39  A    between atoms: _84  and  _85
REMARK   40  A    between atoms: _88  and  _90
REMARK   41  A    between atoms: _90  and  _91
REMARK   42  A    between atoms: _90  and  _93
REMARK   43  A    between atoms: _93  and  _94
REMARK   44  A    between atoms: _94  and  _95
REMARK   45  A    between atoms: _95  and  _96
REMARK   46  A    between atoms: _106  and  _107
REMARK   47  A    between atoms: _113  and  _114
REMARK   48  A    between atoms: _119  and  _121
REMARK   49  A    between atoms: _121  and  _122
REMARK   50  A    between atoms: _121  and  _124
REMARK   51  A    between atoms: _124  and  _125
REMARK   52  A    between atoms: _130  and  _132
REMARK   53  A    between atoms: _132  and  _133
REMARK   54  A    between atoms: _135  and  _137
REMARK   55  A    between atoms: _137  and  _138
REMARK   56  A    between atoms: _137  and  _140
REMARK   57  A    between atoms: _140  and  _141
REMARK   58  A    between atoms: _143  and  _145
REMARK   59  A    between atoms: _145  and  _146
REMARK   60  A    between atoms: _145  and  _148
REMARK   61  A    between atoms: _148  and  _149
REMARK   62  A    between atoms: _152  and  _154
REMARK   63  A    between atoms: _154  and  _155
REMARK   64  A    between atoms: _154  and  _157
REMARK   65  A    between atoms: _157  and  _158
REMARK   66  A    between atoms: _163  and  _165
REMARK   67  A    between atoms: _165  and  _166
REMARK   68  A    between atoms: _169  and  _171
REMARK   69  A    between atoms: _171  and  _172
REMARK   70  A    between atoms: _171  and  _174
REMARK   71  A    between atoms: _174  and  _175
REMARK   72  A    between atoms: _178  and  _179
REMARK   73  A    between atoms: _184  and  _186
REMARK   74  A    between atoms: _186  and  _187
REMARK   75  A    between atoms: _189  and  _191
REMARK   76  A    between atoms: _191  and  _192
REMARK   77  A    between atoms: _191  and  _194
REMARK   78  A    between atoms: _194  and  _195
REMARK   79  A    between atoms: _198  and  _200
REMARK   80  A    between atoms: _200  and  _201
REMARK   81  A    between atoms: _204  and  _206
REMARK   82  A    between atoms: _206  and  _207
REMARK   83  A    between atoms: _206  and  _209
REMARK   84  A    between atoms: _209  and  _210
REMARK   85  A    between atoms: _215  and  _217
REMARK   86  A    between atoms: _217  and  _218
REMARK   87  A    between atoms: _217  and  _220
REMARK   88  A    between atoms: _220  and  _221
REMARK   89  A    between atoms: _223  and  _225
REMARK   90  A    between atoms: _225  and  _226
REMARK   91  A    between atoms: _225  and  _228
REMARK   92  A    between atoms: _228  and  _229
REMARK   93  A    between atoms: _229  and  _230
REMARK   94  A    between atoms: _230  and  _231
REMARK   95  A    between atoms: _231  and  _232
REMARK   96  A    between atoms: _236  and  _238
REMARK   97  A    between atoms: _238  and  _239
REMARK   98  A    between atoms: _238  and  _241
REMARK   99  A    between atoms: _241  and  _242
REMARK  100  A    between atoms: _247  and  _249
REMARK  101  A    between atoms: _249  and  _250
REMARK  102  A    between atoms: _249  and  _252
REMARK  103  A    between atoms: _252  and  _253
REMARK  104  A    between atoms: _255  and  _257
REMARK  105  A    between atoms: _257  and  _258
REMARK  106  A    between atoms: _257  and  _260
REMARK  107  A    between atoms: _260  and  _261
REMARK  108  A    between atoms: _263  and  _265
REMARK  109  A    between atoms: _265  and  _266
REMARK  110  A    between atoms: _265  and  _268
REMARK  111  A    between atoms: _268  and  _269
REMARK  112  A    between atoms: _275  and  _277
REMARK  113  A    between atoms: _277  and  _278
REMARK  114  A    between atoms: _277  and  _280
REMARK  115  A    between atoms: _280  and  _281
REMARK  116  A    between atoms: _281  and  _282
REMARK  117  A    between atoms: _287  and  _289
REMARK  118  A    between atoms: _289  and  _290
REMARK  119  A    between atoms: _289  and  _292
REMARK  120  A    between atoms: _292  and  _293
REMARK  121  A    between atoms: _296  and  _298
REMARK  122  A    between atoms: _298  and  _299
REMARK  123  A    between atoms: _298  and  _301
REMARK  124  A    between atoms: _301  and  _302
REMARK  125  A    between atoms: _307  and  _309
REMARK  126  A    between atoms: _309  and  _310
REMARK  127  A    between atoms: _309  and  _312
REMARK  128  A    between atoms: _312  and  _313
REMARK  129  A    between atoms: _313  and  _314
REMARK  130  A    between atoms: _316  and  _318
REMARK  131  A    between atoms: _318  and  _319
REMARK  132  A    between atoms: _318  and  _321
REMARK  133  A    between atoms: _321  and  _322
REMARK  134  A    between atoms: _325  and  _327
REMARK  135  A    between atoms: _327  and  _328
REMARK  136  A    between atoms: _327  and  _330
REMARK  137  A    between atoms: _330  and  _331
REMARK  138  A    between atoms: _331  and  _332
REMARK  139  A    between atoms: _332  and  _333
REMARK  140  A    between atoms: _342  and  _344
REMARK  141  A    between atoms: _344  and  _345
REMARK  142  A    between atoms: _344  and  _347
REMARK  143  A    between atoms: _347  and  _348
REMARK  144  A    between atoms: _353  and  _354
REMARK  145  A    between atoms: _356  and  _358
REMARK  146  A    between atoms: _358  and  _359
REMARK  147  A    between atoms: _358  and  _365
REMARK  148  A    between atoms: _359  and  _360
REMARK  149  A    between atoms: _360  and  _361
REMARK  150  A    between atoms: _361  and  _362
REMARK  151  A    between atoms: _362  and  _363
REMARK  152  A    between atoms: _370  and  _372
REMARK  153  A    between atoms: _372  and  _373
REMARK  154  A    between atoms: _372  and  _375
REMARK  155  A    between atoms: _375  and  _376
REMARK  156  A    between atoms: _378  and  _380
REMARK  157  A    between atoms: _380  and  _381
REMARK  158  A    between atoms: _380  and  _383
REMARK  159  A    between atoms: _383  and  _384
REMARK  160  A    between atoms: _384  and  _385
REMARK  161  A    between atoms: _385  and  _386
REMARK  162  A    between atoms: _386  and  _387
REMARK  163  A    between atoms: _391  and  _393
REMARK  164  A    between atoms: _393  and  _394
REMARK  165  A    between atoms: _397  and  _399
REMARK  166  A    between atoms: _399  and  _400
REMARK  167  A    between atoms: _399  and  _402
REMARK  168  A    between atoms: _402  and  _403
REMARK  169  A    between atoms: _406  and  _408
REMARK  170  A    between atoms: _408  and  _409
REMARK  171  A    between atoms: _408  and  _411
REMARK  172  A    between atoms: _411  and  _412
REMARK  173  A    between atoms: _417  and  _419
REMARK  174  A    between atoms: _419  and  _420
REMARK  175  A    between atoms: _419  and  _422
REMARK  176  A    between atoms: _422  and  _423
REMARK  177  A    between atoms: _426  and  _428
REMARK  178  A    between atoms: _428  and  _429
REMARK  179  A    between atoms: _431  and  _433
REMARK  180  A    between atoms: _433  and  _434
REMARK  181  A    between atoms: _433  and  _436
REMARK  182  A    between atoms: _436  and  _437
REMARK  183  A    between atoms: _437  and  _438
REMARK  184  A    between atoms: _438  and  _439
REMARK  185  A    between atoms: _439  and  _440
REMARK  186  A    between atoms: _444  and  _446
REMARK  187  A    between atoms: _446  and  _447
REMARK  188  A    between atoms: _450  and  _452
REMARK  189  A    between atoms: _452  and  _453
REMARK  190  A    between atoms: _452  and  _455
REMARK  191  A    between atoms: _457  and  _459
REMARK  192  A    between atoms: _459  and  _460
REMARK  193  A    between atoms: _463  and  _465
REMARK  194  A    between atoms: _465  and  _466
REMARK  195  A    between atoms: _465  and  _468
REMARK  196  A    between atoms: _468  and  _469
REMARK  197  A    between atoms: _471  and  _473
REMARK  198  A    between atoms: _473  and  _474
REMARK  199  A    between atoms: _473  and  _476
REMARK  200  A    between atoms: _476  and  _477
REMARK  201  A    between atoms: _480  and  _482
REMARK  202  A    between atoms: _482  and  _483
REMARK  203  A    between atoms: _482  and  _485
REMARK  204  A    between atoms: _485  and  _486
REMARK  205  A    between atoms: _489  and  _491
REMARK  206  A    between atoms: _491  and  _492
REMARK  207  A    between atoms: _491  and  _494
REMARK  208  A    between atoms: _494  and  _495
REMARK  209  A    between atoms: _495  and  _496
REMARK  210  A    between atoms: _501  and  _503
REMARK  211  A    between atoms: _503  and  _504
REMARK  212  A    between atoms: _503  and  _506
REMARK  213  A    between atoms: _506  and  _507
REMARK  214  A    between atoms: _513  and  _515
REMARK  215  A    between atoms: _515  and  _516
REMARK  216  A    between atoms: _515  and  _518
REMARK  217  A    between atoms: _518  and  _519
REMARK  218  A    between atoms: _519  and  _520
REMARK  219  A    between atoms: _520  and  _521
REMARK  220  A    between atoms: _521  and  _522
REMARK  221  A    between atoms: _526  and  _528
REMARK  222  A    between atoms: _528  and  _529
REMARK  223  A    between atoms: _528  and  _531
REMARK  224  A    between atoms: _531  and  _532
REMARK  225  A    between atoms: _537  and  _539
REMARK  226  A    between atoms: _539  and  _540
REMARK  227  A    between atoms: _539  and  _542
REMARK  228  A    between atoms: _542  and  _543
REMARK  229  A    between atoms: _549  and  _551
REMARK  230  A    between atoms: _551  and  _552
REMARK  231  A    between atoms: _551  and  _554
REMARK  232  A    between atoms: _554  and  _555
REMARK  233  A    between atoms: _555  and  _556
REMARK  234  A    between atoms: _559  and  _561
REMARK  235  A    between atoms: _561  and  _562
REMARK  236  A    between atoms: _561  and  _564
REMARK  237  A    between atoms: _564  and  _565
REMARK  238  A    between atoms: _565  and  _566
REMARK  239  A    between atoms: _571  and  _573
REMARK  240  A    between atoms: _573  and  _574
REMARK  241  A    between atoms: _573  and  _576
REMARK  242  A    between atoms: _576  and  _577
REMARK  243  A    between atoms: _577  and  _578
REMARK  244  A    between atoms: _578  and  _579
REMARK  245  A    between atoms: _588  and  _590
REMARK  246  A    between atoms: _590  and  _591
REMARK                            x       y       z     vdW  Elec       q    Type
REMARK                         _______ _______ _______ _____ _____    ______ ____
ROOT
ATOM      1  O   HOH     1      11.298  24.837  45.837  0.00  0.00    +0.000 OA
ENDROOT
TORSDOF 0
REMARK  Name = ../refined-set-2016/2xpc/2xpc_pocket.pdb
REMARK  246 active torsions:
REMARK  status: ('A' for Active; 'I' for Inactive)
REMARK    1  A    between atoms: _1  and  _3
REMARK    2  A    between atoms: _3  and  _4
REMARK    3  A    between atoms: _3  and  _6
REMARK    4  A    between atoms: _6  and  _7
REMARK    5  A    between atoms: _10  and  _12
REMARK    6  A    between atoms: _12  and  _13
REMARK    7  A    between atoms: _12  and  _15
REMARK    8  A    between atoms: _15  and  _16
REMARK    9  A    between atoms: _19  and  _21
REMARK   10  A    between atoms: _21  and  _22
REMARK   11  A    between atoms: _24  and  _26
REMARK   12  A    between atoms: _26  and  _27
REMARK   13  A    between atoms: _26  and  _29
REMARK   14  A    between atoms: _29  and  _30
REMARK   15  A    between atoms: _33  and  _35
REMARK   16  A    between atoms: _35  and  _36
REMARK   17  A    between atoms: _38  and  _40
REMARK   18  A    between atoms: _40  and  _41
REMARK   19  A    between atoms: _40  and  _43
REMARK   20  A    between atoms: _43  and  _44
REMARK   21  A    between atoms: _47  and  _49
REMARK   22  A    between atoms: _49  and  _50
REMARK   23  A    between atoms: _49  and  _52
REMARK   24  A    between atoms: _52  and  _53
REMARK   25  A    between atoms: _56  and  _58
REMARK   26  A    between atoms: _58  and  _59
REMARK   27  A    between atoms: _61  and  _63
REMARK   28  A    between atoms: _63  and  _64
REMARK   29  A    between atoms: _63  and  _66
REMARK   30  A    between atoms: _66  and  _67
REMARK   31  A    between atoms: _67  and  _68
REMARK   32  A    between atoms: _70  and  _72
REMARK   33  A    between atoms: _72  and  _73
REMARK   34  A    between atoms: _72  and  _75
REMARK   35  A    between atoms: _75  and  _76
REMARK   36  A    between atoms: _79  and  _81
REMARK   37  A    between atoms: _81  and  _82
REMARK   38  A    between atoms: _81  and  _84
REMARK   39  A    between atoms: _84  and  _85
REMARK   40  A    between atoms: _88  and  _90
REMARK   41  A    between atoms: _90  and  _91
REMARK   42  A    between atoms: _90  and  _93
REMARK   43  A    between atoms: _93  and  _94
REMARK   44  A    between atoms: _94  and  _95
REMARK   45  A    between atoms: _95  and  _96
REMARK   46  A    between atoms: _106  and  _107
REMARK   47  A    between atoms: _113  and  _114
REMARK   48  A    between atoms: _119  and  _121
REMARK   49  A    between atoms: _121  and  _122
REMARK   50  A    between atoms: _121  and  _124
REMARK   51  A    between atoms: _124  and  _125
REMARK   52  A    between atoms: _130  and  _132
REMARK   53  A    between atoms: _132  and  _133
REMARK   54  A    between atoms: _135  and  _137
REMARK   55  A    between atoms: _137  and  _138
REMARK   56  A    between atoms: _137  and  _140
REMARK   57  A    between atoms: _140  and  _141
REMARK   58  A    between atoms: _143  and  _145
REMARK   59  A    between atoms: _145  and  _146
REMARK   60  A    between atoms: _145  and  _148
REMARK   61  A    between atoms: _148  and  _149
REMARK   62  A    between atoms: _152  and  _154
REMARK   63  A    between atoms: _154  and  _155
REMARK   64  A    between atoms: _154  and  _157
REMARK   65  A    between atoms: _157  and  _158
REMARK   66  A    between atoms: _163  and  _165
REMARK   67  A    between atoms: _165  and  _166
REMARK   68  A    between atoms: _169  and  _171
REMARK   69  A    between atoms: _171  and  _172
REMARK   70  A    between atoms: _171  and  _174
REMARK   71  A    between atoms: _174  and  _175
REMARK   72  A    between atoms: _178  and  _179
REMARK   73  A    between atoms: _184  and  _186
REMARK   74  A    between atoms: _186  and  _187
REMARK   75  A    between atoms: _189  and  _191
REMARK   76  A    between atoms: _191  and  _192
REMARK   77  A    between atoms: _191  and  _194
REMARK   78  A    between atoms: _194  and  _195
REMARK   79  A    between atoms: _198  and  _200
REMARK   80  A    between atoms: _200  and  _201
REMARK   81  A    between atoms: _204  and  _206
REMARK   82  A    between atoms: _206  and  _207
REMARK   83  A    between atoms: _206  and  _209
REMARK   84  A    between atoms: _209  and  _210
REMARK   85  A    between atoms: _215  and  _217
REMARK   86  A    between atoms: _217  and  _218
REMARK   87  A    between atoms: _217  and  _220
REMARK   88  A    between atoms: _220  and  _221
REMARK   89  A    between atoms: _223  and  _225
REMARK   90  A    between atoms: _225  and  _226
REMARK   91  A    between atoms: _225  and  _228
REMARK   92  A    between atoms: _228  and  _229
REMARK   93  A    between atoms: _229  and  _230
REMARK   94  A    between atoms: _230  and  _231
REMARK   95  A    between atoms: _231  and  _232
REMARK   96  A    between atoms: _236  and  _238
REMARK   97  A    between atoms: _238  and  _239
REMARK   98  A    between atoms: _238  and  _241
REMARK   99  A    between atoms: _241  and  _242
REMARK  100  A    between atoms: _247  and  _249
REMARK  101  A    between atoms: _249  and  _250
REMARK  102  A    between atoms: _249  and  _252
REMARK  103  A    between atoms: _252  and  _253
REMARK  104  A    between atoms: _255  and  _257
REMARK  105  A    between atoms: _257  and  _258
REMARK  106  A    between atoms: _257  and  _260
REMARK  107  A    between atoms: _260  and  _261
REMARK  108  A    between atoms: _263  and  _265
REMARK  109  A    between atoms: _265  and  _266
REMARK  110  A    between atoms: _265  and  _268
REMARK  111  A    between atoms: _268  and  _269
REMARK  112  A    between atoms: _275  and  _277
REMARK  113  A    between atoms: _277  and  _278
REMARK  114  A    between atoms: _277  and  _280
REMARK  115  A    between atoms: _280  and  _281
REMARK  116  A    between atoms: _281  and  _282
REMARK  117  A    between atoms: _287  and  _289
REMARK  118  A    between atoms: _289  and  _290
REMARK  119  A    between atoms: _289  and  _292
REMARK  120  A    between atoms: _292  and  _293
REMARK  121  A    between atoms: _296  and  _298
REMARK  122  A    between atoms: _298  and  _299
REMARK  123  A    between atoms: _298  and  _301
REMARK  124  A    between atoms: _301  and  _302
REMARK  125  A    between atoms: _307  and  _309
REMARK  126  A    between atoms: _309  and  _310
REMARK  127  A    between atoms: _309  and  _312
REMARK  128  A    between atoms: _312  and  _313
REMARK  129  A    between atoms: _313  and  _314
REMARK  130  A    between atoms: _316  and  _318
REMARK  131  A    between atoms: _318  and  _319
REMARK  132  A    between atoms: _318  and  _321
REMARK  133  A    between atoms: _321  and  _322
REMARK  134  A    between atoms: _325  and  _327
REMARK  135  A    between atoms: _327  and  _328
REMARK  136  A    between atoms: _327  and  _330
REMARK  137  A    between atoms: _330  and  _331
REMARK  138  A    between atoms: _331  and  _332
REMARK  139  A    between atoms: _332  and  _333
REMARK  140  A    between atoms: _342  and  _344
REMARK  141  A    between atoms: _344  and  _345
REMARK  142  A    between atoms: _344  and  _347
REMARK  143  A    between atoms: _347  and  _348
REMARK  144  A    between atoms: _353  and  _354
REMARK  145  A    between atoms: _356  and  _358
REMARK  146  A    between atoms: _358  and  _359
REMARK  147  A    between atoms: _358  and  _365
REMARK  148  A    between atoms: _359  and  _360
REMARK  149  A    between atoms: _360  and  _361
REMARK  150  A    between atoms: _361  and  _362
REMARK  151  A    between atoms: _362  and  _363
REMARK  152  A    between atoms: _370  and  _372
REMARK  153  A    between atoms: _372  and  _373
REMARK  154  A    between atoms: _372  and  _375
REMARK  155  A    between atoms: _375  and  _376
REMARK  156  A    between atoms: _378  and  _380
REMARK  157  A    between atoms: _380  and  _381
REMARK  158  A    between atoms: _380  and  _383
REMARK  159  A    between atoms: _383  and  _384
REMARK  160  A    between atoms: _384  and  _385
REMARK  161  A    between atoms: _385  and  _386
REMARK  162  A    between atoms: _386  and  _387
REMARK  163  A    between atoms: _391  and  _393
REMARK  164  A    between atoms: _393  and  _394
REMARK  165  A    between atoms: _397  and  _399
REMARK  166  A    between atoms: _399  and  _400
REMARK  167  A    between atoms: _399  and  _402
REMARK  168  A    between atoms: _402  and  _403
REMARK  169  A    between atoms: _406  and  _408
REMARK  170  A    between atoms: _408  and  _409
REMARK  171  A    between atoms: _408  and  _411
REMARK  172  A    between atoms: _411  and  _412
REMARK  173  A    between atoms: _417  and  _419
REMARK  174  A    between atoms: _419  and  _420
REMARK  175  A    between atoms: _419  and  _422
REMARK  176  A    between atoms: _422  and  _423
REMARK  177  A    between atoms: _426  and  _428
REMARK  178  A    between atoms: _428  and  _429
REMARK  179  A    between atoms: _431  and  _433
REMARK  180  A    between atoms: _433  and  _434
REMARK  181  A    between atoms: _433  and  _436
REMARK  182  A    between atoms: _436  and  _437
REMARK  183  A    between atoms: _437  and  _438
REMARK  184  A    between atoms: _438  and  _439
REMARK  185  A    between atoms: _439  and  _440
REMARK  186  A    between atoms: _444  and  _446
REMARK  187  A    between atoms: _446  and  _447
REMARK  188  A    between atoms: _450  and  _452
REMARK  189  A    between atoms: _452  and  _453
REMARK  190  A    between atoms: _452  and  _455
REMARK  191  A    between atoms: _457  and  _459
REMARK  192  A    between atoms: _459  and  _460
REMARK  193  A    between atoms: _463  and  _465
REMARK  194  A    between atoms: _465  and  _466
REMARK  195  A    between atoms: _465  and  _468
REMARK  196  A    between atoms: _468  and  _469
REMARK  197  A    between atoms: _471  and  _473
REMARK  198  A    between atoms: _473  and  _474
REMARK  199  A    between atoms: _473  and  _476
REMARK  200  A    between atoms: _476  and  _477
REMARK  201  A    between atoms: _480  and  _482
REMARK  202  A    between atoms: _482  and  _483
REMARK  203  A    between atoms: _482  and  _485
REMARK  204  A    between atoms: _485  and  _486
REMARK  205  A    between atoms: _489  and  _491
REMARK  206  A    between atoms: _491  and  _492
REMARK  207  A    between atoms: _491  and  _494
REMARK  208  A    between atoms: _494  and  _495
REMARK  209  A    between atoms: _495  and  _496
REMARK  210  A    between atoms: _501  and  _503
REMARK  211  A    between atoms: _503  and  _504
REMARK  212  A    between atoms: _503  and  _506
REMARK  213  A    between atoms: _506  and  _507
REMARK  214  A    between atoms: _513  and  _515
REMARK  215  A    between atoms: _515  and  _516
REMARK  216  A    between atoms: _515  and  _518
REMARK  217  A    between atoms: _518  and  _519
REMARK  218  A    between atoms: _519  and  _520
REMARK  219  A    between atoms: _520  and  _521
REMARK  220  A    between atoms: _521  and  _522
REMARK  221  A    between atoms: _526  and  _528
REMARK  222  A    between atoms: _528  and  _529
REMARK  223  A    between atoms: _528  and  _531
REMARK  224  A    between atoms: _531  and  _532
REMARK  225  A    between atoms: _537  and  _539
REMARK  226  A    between atoms: _539  and  _540
REMARK  227  A    between atoms: _539  and  _542
REMARK  228  A    between atoms: _542  and  _543
REMARK  229  A    between atoms: _549  and  _551
REMARK  230  A    between atoms: _551  and  _552
REMARK  231  A    between atoms: _551  and  _554
REMARK  232  A    between atoms: _554  and  _555
REMARK  233  A    between atoms: _555  and  _556
REMARK  234  A    between atoms: _559  and  _561
REMARK  235  A    between atoms: _561  and  _562
REMARK  236  A    between atoms: _561  and  _564
REMARK  237  A    between atoms: _564  and  _565
REMARK  238  A    between atoms: _565  and  _566
REMARK  239  A    between atoms: _571  and  _573
REMARK  240  A    between atoms: _573  and  _574
REMARK  241  A    between atoms: _573  and  _576
REMARK  242  A    between atoms: _576  and  _577
REMARK  243  A    between atoms: _577  and  _578
REMARK  244  A    between atoms: _578  and  _579
REMARK  245  A    between atoms: _588  and  _590
REMARK  246  A    between atoms: _590  and  _591
REMARK                            x       y       z     vdW  Elec       q    Type
REMARK                         _______ _______ _______ _____ _____    ______ ____
ROOT
ATOM      1  O   HOH     1       9.025  23.947  52.799  0.00  0.00    +0.000 OA
ENDROOT
TORSDOF 0
REMARK  Name = ../refined-set-2016/2xpc/2xpc_pocket.pdb
REMARK  246 active torsions:
REMARK  status: ('A' for Active; 'I' for Inactive)
REMARK    1  A    between atoms: _1  and  _3
REMARK    2  A    between atoms: _3  and  _4
REMARK    3  A    between atoms: _3  and  _6
REMARK    4  A    between atoms: _6  and  _7
REMARK    5  A    between atoms: _10  and  _12
REMARK    6  A    between atoms: _12  and  _13
REMARK    7  A    between atoms: _12  and  _15
REMARK    8  A    between atoms: _15  and  _16
REMARK    9  A    between atoms: _19  and  _21
REMARK   10  A    between atoms: _21  and  _22
REMARK   11  A    between atoms: _24  and  _26
REMARK   12  A    between atoms: _26  and  _27
REMARK   13  A    between atoms: _26  and  _29
REMARK   14  A    between atoms: _29  and  _30
REMARK   15  A    between atoms: _33  and  _35
REMARK   16  A    between atoms: _35  and  _36
REMARK   17  A    between atoms: _38  and  _40
REMARK   18  A    between atoms: _40  and  _41
REMARK   19  A    between atoms: _40  and  _43
REMARK   20  A    between atoms: _43  and  _44
REMARK   21  A    between atoms: _47  and  _49
REMARK   22  A    between atoms: _49  and  _50
REMARK   23  A    between atoms: _49  and  _52
REMARK   24  A    between atoms: _52  and  _53
REMARK   25  A    between atoms: _56  and  _58
REMARK   26  A    between atoms: _58  and  _59
REMARK   27  A    between atoms: _61  and  _63
REMARK   28  A    between atoms: _63  and  _64
REMARK   29  A    between atoms: _63  and  _66
REMARK   30  A    between atoms: _66  and  _67
REMARK   31  A    between atoms: _67  and  _68
REMARK   32  A    between atoms: _70  and  _72
REMARK   33  A    between atoms: _72  and  _73
REMARK   34  A    between atoms: _72  and  _75
REMARK   35  A    between atoms: _75  and  _76
REMARK   36  A    between atoms: _79  and  _81
REMARK   37  A    between atoms: _81  and  _82
REMARK   38  A    between atoms: _81  and  _84
REMARK   39  A    between atoms: _84  and  _85
REMARK   40  A    between atoms: _88  and  _90
REMARK   41  A    between atoms: _90  and  _91
REMARK   42  A    between atoms: _90  and  _93
REMARK   43  A    between atoms: _93  and  _94
REMARK   44  A    between atoms: _94  and  _95
REMARK   45  A    between atoms: _95  and  _96
REMARK   46  A    between atoms: _106  and  _107
REMARK   47  A    between atoms: _113  and  _114
REMARK   48  A    between atoms: _119  and  _121
REMARK   49  A    between atoms: _121  and  _122
REMARK   50  A    between atoms: _121  and  _124
REMARK   51  A    between atoms: _124  and  _125
REMARK   52  A    between atoms: _130  and  _132
REMARK   53  A    between atoms: _132  and  _133
REMARK   54  A    between atoms: _135  and  _137
REMARK   55  A    between atoms: _137  and  _138
REMARK   56  A    between atoms: _137  and  _140
REMARK   57  A    between atoms: _140  and  _141
REMARK   58  A    between atoms: _143  and  _145
REMARK   59  A    between atoms: _145  and  _146
REMARK   60  A    between atoms: _145  and  _148
REMARK   61  A    between atoms: _148  and  _149
REMARK   62  A    between atoms: _152  and  _154
REMARK   63  A    between atoms: _154  and  _155
REMARK   64  A    between atoms: _154  and  _157
REMARK   65  A    between atoms: _157  and  _158
REMARK   66  A    between atoms: _163  and  _165
REMARK   67  A    between atoms: _165  and  _166
REMARK   68  A    between atoms: _169  and  _171
REMARK   69  A    between atoms: _171  and  _172
REMARK   70  A    between atoms: _171  and  _174
REMARK   71  A    between atoms: _174  and  _175
REMARK   72  A    between atoms: _178  and  _179
REMARK   73  A    between atoms: _184  and  _186
REMARK   74  A    between atoms: _186  and  _187
REMARK   75  A    between atoms: _189  and  _191
REMARK   76  A    between atoms: _191  and  _192
REMARK   77  A    between atoms: _191  and  _194
REMARK   78  A    between atoms: _194  and  _195
REMARK   79  A    between atoms: _198  and  _200
REMARK   80  A    between atoms: _200  and  _201
REMARK   81  A    between atoms: _204  and  _206
REMARK   82  A    between atoms: _206  and  _207
REMARK   83  A    between atoms: _206  and  _209
REMARK   84  A    between atoms: _209  and  _210
REMARK   85  A    between atoms: _215  and  _217
REMARK   86  A    between atoms: _217  and  _218
REMARK   87  A    between atoms: _217  and  _220
REMARK   88  A    between atoms: _220  and  _221
REMARK   89  A    between atoms: _223  and  _225
REMARK   90  A    between atoms: _225  and  _226
REMARK   91  A    between atoms: _225  and  _228
REMARK   92  A    between atoms: _228  and  _229
REMARK   93  A    between atoms: _229  and  _230
REMARK   94  A    between atoms: _230  and  _231
REMARK   95  A    between atoms: _231  and  _232
REMARK   96  A    between atoms: _236  and  _238
REMARK   97  A    between atoms: _238  and  _239
REMARK   98  A    between atoms: _238  and  _241
REMARK   99  A    between atoms: _241  and  _242
REMARK  100  A    between atoms: _247  and  _249
REMARK  101  A    between atoms: _249  and  _250
REMARK  102  A    between atoms: _249  and  _252
REMARK  103  A    between atoms: _252  and  _253
REMARK  104  A    between atoms: _255  and  _257
REMARK  105  A    between atoms: _257  and  _258
REMARK  106  A    between atoms: _257  and  _260
REMARK  107  A    between atoms: _260  and  _261
REMARK  108  A    between atoms: _263  and  _265
REMARK  109  A    between atoms: _265  and  _266
REMARK  110  A    between atoms: _265  and  _268
REMARK  111  A    between atoms: _268  and  _269
REMARK  112  A    between atoms: _275  and  _277
REMARK  113  A    between atoms: _277  and  _278
REMARK  114  A    between atoms: _277  and  _280
REMARK  115  A    between atoms: _280  and  _281
REMARK  116  A    between atoms: _281  and  _282
REMARK  117  A    between atoms: _287  and  _289
REMARK  118  A    between atoms: _289  and  _290
REMARK  119  A    between atoms: _289  and  _292
REMARK  120  A    between atoms: _292  and  _293
REMARK  121  A    between atoms: _296  and  _298
REMARK  122  A    between atoms: _298  and  _299
REMARK  123  A    between atoms: _298  and  _301
REMARK  124  A    between atoms: _301  and  _302
REMARK  125  A    between atoms: _307  and  _309
REMARK  126  A    between atoms: _309  and  _310
REMARK  127  A    between atoms: _309  and  _312
REMARK  128  A    between atoms: _312  and  _313
REMARK  129  A    between atoms: _313  and  _314
REMARK  130  A    between atoms: _316  and  _318
REMARK  131  A    between atoms: _318  and  _319
REMARK  132  A    between atoms: _318  and  _321
REMARK  133  A    between atoms: _321  and  _322
REMARK  134  A    between atoms: _325  and  _327
REMARK  135  A    between atoms: _327  and  _328
REMARK  136  A    between atoms: _327  and  _330
REMARK  137  A    between atoms: _330  and  _331
REMARK  138  A    between atoms: _331  and  _332
REMARK  139  A    between atoms: _332  and  _333
REMARK  140  A    between atoms: _342  and  _344
REMARK  141  A    between atoms: _344  and  _345
REMARK  142  A    between atoms: _344  and  _347
REMARK  143  A    between atoms: _347  and  _348
REMARK  144  A    between atoms: _353  and  _354
REMARK  145  A    between atoms: _356  and  _358
REMARK  146  A    between atoms: _358  and  _359
REMARK  147  A    between atoms: _358  and  _365
REMARK  148  A    between atoms: _359  and  _360
REMARK  149  A    between atoms: _360  and  _361
REMARK  150  A    between atoms: _361  and  _362
REMARK  151  A    between atoms: _362  and  _363
REMARK  152  A    between atoms: _370  and  _372
REMARK  153  A    between atoms: _372  and  _373
REMARK  154  A    between atoms: _372  and  _375
REMARK  155  A    between atoms: _375  and  _376
REMARK  156  A    between atoms: _378  and  _380
REMARK  157  A    between atoms: _380  and  _381
REMARK  158  A    between atoms: _380  and  _383
REMARK  159  A    between atoms: _383  and  _384
REMARK  160  A    between atoms: _384  and  _385
REMARK  161  A    between atoms: _385  and  _386
REMARK  162  A    between atoms: _386  and  _387
REMARK  163  A    between atoms: _391  and  _393
REMARK  164  A    between atoms: _393  and  _394
REMARK  165  A    between atoms: _397  and  _399
REMARK  166  A    between atoms: _399  and  _400
REMARK  167  A    between atoms: _399  and  _402
REMARK  168  A    between atoms: _402  and  _403
REMARK  169  A    between atoms: _406  and  _408
REMARK  170  A    between atoms: _408  and  _409
REMARK  171  A    between atoms: _408  and  _411
REMARK  172  A    between atoms: _411  and  _412
REMARK  173  A    between atoms: _417  and  _419
REMARK  174  A    between atoms: _419  and  _420
REMARK  175  A    between atoms: _419  and  _422
REMARK  176  A    between atoms: _422  and  _423
REMARK  177  A    between atoms: _426  and  _428
REMARK  178  A    between atoms: _428  and  _429
REMARK  179  A    between atoms: _431  and  _433
REMARK  180  A    between atoms: _433  and  _434
REMARK  181  A    between atoms: _433  and  _436
REMARK  182  A    between atoms: _436  and  _437
REMARK  183  A    between atoms: _437  and  _438
REMARK  184  A    between atoms: _438  and  _439
REMARK  185  A    between atoms: _439  and  _440
REMARK  186  A    between atoms: _444  and  _446
REMARK  187  A    between atoms: _446  and  _447
REMARK  188  A    between atoms: _450  and  _452
REMARK  189  A    between atoms: _452  and  _453
REMARK  190  A    between atoms: _452  and  _455
REMARK  191  A    between atoms: _457  and  _459
REMARK  192  A    between atoms: _459  and  _460
REMARK  193  A    between atoms: _463  and  _465
REMARK  194  A    between atoms: _465  and  _466
REMARK  195  A    between atoms: _465  and  _468
REMARK  196  A    between atoms: _468  and  _469
REMARK  197  A    between atoms: _471  and  _473
REMARK  198  A    between atoms: _473  and  _474
REMARK  199  A    between atoms: _473  and  _476
REMARK  200  A    between atoms: _476  and  _477
REMARK  201  A    between atoms: _480  and  _482
REMARK  202  A    between atoms: _482  and  _483
REMARK  203  A    between atoms: _482  and  _485
REMARK  204  A    between atoms: _485  and  _486
REMARK  205  A    between atoms: _489  and  _491
REMARK  206  A    between atoms: _491  and  _492
REMARK  207  A    between atoms: _491  and  _494
REMARK  208  A    between atoms: _494  and  _495
REMARK  209  A    between atoms: _495  and  _496
REMARK  210  A    between atoms: _501  and  _503
REMARK  211  A    between atoms: _503  and  _504
REMARK  212  A    between atoms: _503  and  _506
REMARK  213  A    between atoms: _506  and  _507
REMARK  214  A    between atoms: _513  and  _515
REMARK  215  A    between atoms: _515  and  _516
REMARK  216  A    between atoms: _515  and  _518
REMARK  217  A    between atoms: _518  and  _519
REMARK  218  A    between atoms: _519  and  _520
REMARK  219  A    between atoms: _520  and  _521
REMARK  220  A    between atoms: _521  and  _522
REMARK  221  A    between atoms: _526  and  _528
REMARK  222  A    between atoms: _528  and  _529
REMARK  223  A    between atoms: _528  and  _531
REMARK  224  A    between atoms: _531  and  _532
REMARK  225  A    between atoms: _537  and  _539
REMARK  226  A    between atoms: _539  and  _540
REMARK  227  A    between atoms: _539  and  _542
REMARK  228  A    between atoms: _542  and  _543
REMARK  229  A    between atoms: _549  and  _551
REMARK  230  A    between atoms: _551  and  _552
REMARK  231  A    between atoms: _551  and  _554
REMARK  232  A    between atoms: _554  and  _555
REMARK  233  A    between atoms: _555  and  _556
REMARK  234  A    between atoms: _559  and  _561
REMARK  235  A    between atoms: _561  and  _562
REMARK  236  A    between atoms: _561  and  _564
REMARK  237  A    between atoms: _564  and  _565
REMARK  238  A    between atoms: _565  and  _566
REMARK  239  A    between atoms: _571  and  _573
REMARK  240  A    between atoms: _573  and  _574
REMARK  241  A    between atoms: _573  and  _576
REMARK  242  A    between atoms: _576  and  _577
REMARK  243  A    between atoms: _577  and  _578
REMARK  244  A    between atoms: _578  and  _579
REMARK  245  A    between atoms: _588  and  _590
REMARK  246  A    between atoms: _590  and  _591
REMARK                            x       y       z     vdW  Elec       q    Type
REMARK                         _______ _______ _______ _____ _____    ______ ____
ROOT
ATOM      1  O   HOH     1       7.070  22.667  51.884  0.00  0.00    +0.000 OA
ENDROOT
TORSDOF 0
REMARK  Name = ../refined-set-2016/2xpc/2xpc_pocket.pdb
REMARK  246 active torsions:
REMARK  status: ('A' for Active; 'I' for Inactive)
REMARK    1  A    between atoms: _1  and  _3
REMARK    2  A    between atoms: _3  and  _4
REMARK    3  A    between atoms: _3  and  _6
REMARK    4  A    between atoms: _6  and  _7
REMARK    5  A    between atoms: _10  and  _12
REMARK    6  A    between atoms: _12  and  _13
REMARK    7  A    between atoms: _12  and  _15
REMARK    8  A    between atoms: _15  and  _16
REMARK    9  A    between atoms: _19  and  _21
REMARK   10  A    between atoms: _21  and  _22
REMARK   11  A    between atoms: _24  and  _26
REMARK   12  A    between atoms: _26  and  _27
REMARK   13  A    between atoms: _26  and  _29
REMARK   14  A    between atoms: _29  and  _30
REMARK   15  A    between atoms: _33  and  _35
REMARK   16  A    between atoms: _35  and  _36
REMARK   17  A    between atoms: _38  and  _40
REMARK   18  A    between atoms: _40  and  _41
REMARK   19  A    between atoms: _40  and  _43
REMARK   20  A    between atoms: _43  and  _44
REMARK   21  A    between atoms: _47  and  _49
REMARK   22  A    between atoms: _49  and  _50
REMARK   23  A    between atoms: _49  and  _52
REMARK   24  A    between atoms: _52  and  _53
REMARK   25  A    between atoms: _56  and  _58
REMARK   26  A    between atoms: _58  and  _59
REMARK   27  A    between atoms: _61  and  _63
REMARK   28  A    between atoms: _63  and  _64
REMARK   29  A    between atoms: _63  and  _66
REMARK   30  A    between atoms: _66  and  _67
REMARK   31  A    between atoms: _67  and  _68
REMARK   32  A    between atoms: _70  and  _72
REMARK   33  A    between atoms: _72  and  _73
REMARK   34  A    between atoms: _72  and  _75
REMARK   35  A    between atoms: _75  and  _76
REMARK   36  A    between atoms: _79  and  _81
REMARK   37  A    between atoms: _81  and  _82
REMARK   38  A    between atoms: _81  and  _84
REMARK   39  A    between atoms: _84  and  _85
REMARK   40  A    between atoms: _88  and  _90
REMARK   41  A    between atoms: _90  and  _91
REMARK   42  A    between atoms: _90  and  _93
REMARK   43  A    between atoms: _93  and  _94
REMARK   44  A    between atoms: _94  and  _95
REMARK   45  A    between atoms: _95  and  _96
REMARK   46  A    between atoms: _106  and  _107
REMARK   47  A    between atoms: _113  and  _114
REMARK   48  A    between atoms: _119  and  _121
REMARK   49  A    between atoms: _121  and  _122
REMARK   50  A    between atoms: _121  and  _124
REMARK   51  A    between atoms: _124  and  _125
REMARK   52  A    between atoms: _130  and  _132
REMARK   53  A    between atoms: _132  and  _133
REMARK   54  A    between atoms: _135  and  _137
REMARK   55  A    between atoms: _137  and  _138
REMARK   56  A    between atoms: _137  and  _140
REMARK   57  A    between atoms: _140  and  _141
REMARK   58  A    between atoms: _143  and  _145
REMARK   59  A    between atoms: _145  and  _146
REMARK   60  A    between atoms: _145  and  _148
REMARK   61  A    between atoms: _148  and  _149
REMARK   62  A    between atoms: _152  and  _154
REMARK   63  A    between atoms: _154  and  _155
REMARK   64  A    between atoms: _154  and  _157
REMARK   65  A    between atoms: _157  and  _158
REMARK   66  A    between atoms: _163  and  _165
REMARK   67  A    between atoms: _165  and  _166
REMARK   68  A    between atoms: _169  and  _171
REMARK   69  A    between atoms: _171  and  _172
REMARK   70  A    between atoms: _171  and  _174
REMARK   71  A    between atoms: _174  and  _175
REMARK   72  A    between atoms: _178  and  _179
REMARK   73  A    between atoms: _184  and  _186
REMARK   74  A    between atoms: _186  and  _187
REMARK   75  A    between atoms: _189  and  _191
REMARK   76  A    between atoms: _191  and  _192
REMARK   77  A    between atoms: _191  and  _194
REMARK   78  A    between atoms: _194  and  _195
REMARK   79  A    between atoms: _198  and  _200
REMARK   80  A    between atoms: _200  and  _201
REMARK   81  A    between atoms: _204  and  _206
REMARK   82  A    between atoms: _206  and  _207
REMARK   83  A    between atoms: _206  and  _209
REMARK   84  A    between atoms: _209  and  _210
REMARK   85  A    between atoms: _215  and  _217
REMARK   86  A    between atoms: _217  and  _218
REMARK   87  A    between atoms: _217  and  _220
REMARK   88  A    between atoms: _220  and  _221
REMARK   89  A    between atoms: _223  and  _225
REMARK   90  A    between atoms: _225  and  _226
REMARK   91  A    between atoms: _225  and  _228
REMARK   92  A    between atoms: _228  and  _229
REMARK   93  A    between atoms: _229  and  _230
REMARK   94  A    between atoms: _230  and  _231
REMARK   95  A    between atoms: _231  and  _232
REMARK   96  A    between atoms: _236  and  _238
REMARK   97  A    between atoms: _238  and  _239
REMARK   98  A    between atoms: _238  and  _241
REMARK   99  A    between atoms: _241  and  _242
REMARK  100  A    between atoms: _247  and  _249
REMARK  101  A    between atoms: _249  and  _250
REMARK  102  A    between atoms: _249  and  _252
REMARK  103  A    between atoms: _252  and  _253
REMARK  104  A    between atoms: _255  and  _257
REMARK  105  A    between atoms: _257  and  _258
REMARK  106  A    between atoms: _257  and  _260
REMARK  107  A    between atoms: _260  and  _261
REMARK  108  A    between atoms: _263  and  _265
REMARK  109  A    between atoms: _265  and  _266
REMARK  110  A    between atoms: _265  and  _268
REMARK  111  A    between atoms: _268  and  _269
REMARK  112  A    between atoms: _275  and  _277
REMARK  113  A    between atoms: _277  and  _278
REMARK  114  A    between atoms: _277  and  _280
REMARK  115  A    between atoms: _280  and  _281
REMARK  116  A    between atoms: _281  and  _282
REMARK  117  A    between atoms: _287  and  _289
REMARK  118  A    between atoms: _289  and  _290
REMARK  119  A    between atoms: _289  and  _292
REMARK  120  A    between atoms: _292  and  _293
REMARK  121  A    between atoms: _296  and  _298
REMARK  122  A    between atoms: _298  and  _299
REMARK  123  A    between atoms: _298  and  _301
REMARK  124  A    between atoms: _301  and  _302
REMARK  125  A    between atoms: _307  and  _309
REMARK  126  A    between atoms: _309  and  _310
REMARK  127  A    between atoms: _309  and  _312
REMARK  128  A    between atoms: _312  and  _313
REMARK  129  A    between atoms: _313  and  _314
REMARK  130  A    between atoms: _316  and  _318
REMARK  131  A    between atoms: _318  and  _319
REMARK  132  A    between atoms: _318  and  _321
REMARK  133  A    between atoms: _321  and  _322
REMARK  134  A    between atoms: _325  and  _327
REMARK  135  A    between atoms: _327  and  _328
REMARK  136  A    between atoms: _327  and  _330
REMARK  137  A    between atoms: _330  and  _331
REMARK  138  A    between atoms: _331  and  _332
REMARK  139  A    between atoms: _332  and  _333
REMARK  140  A    between atoms: _342  and  _344
REMARK  141  A    between atoms: _344  and  _345
REMARK  142  A    between atoms: _344  and  _347
REMARK  143  A    between atoms: _347  and  _348
REMARK  144  A    between atoms: _353  and  _354
REMARK  145  A    between atoms: _356  and  _358
REMARK  146  A    between atoms: _358  and  _359
REMARK  147  A    between atoms: _358  and  _365
REMARK  148  A    between atoms: _359  and  _360
REMARK  149  A    between atoms: _360  and  _361
REMARK  150  A    between atoms: _361  and  _362
REMARK  151  A    between atoms: _362  and  _363
REMARK  152  A    between atoms: _370  and  _372
REMARK  153  A    between atoms: _372  and  _373
REMARK  154  A    between atoms: _372  and  _375
REMARK  155  A    between atoms: _375  and  _376
REMARK  156  A    between atoms: _378  and  _380
REMARK  157  A    between atoms: _380  and  _381
REMARK  158  A    between atoms: _380  and  _383
REMARK  159  A    between atoms: _383  and  _384
REMARK  160  A    between atoms: _384  and  _385
REMARK  161  A    between atoms: _385  and  _386
REMARK  162  A    between atoms: _386  and  _387
REMARK  163  A    between atoms: _391  and  _393
REMARK  164  A    between atoms: _393  and  _394
REMARK  165  A    between atoms: _397  and  _399
REMARK  166  A    between atoms: _399  and  _400
REMARK  167  A    between atoms: _399  and  _402
REMARK  168  A    between atoms: _402  and  _403
REMARK  169  A    between atoms: _406  and  _408
REMARK  170  A    between atoms: _408  and  _409
REMARK  171  A    between atoms: _408  and  _411
REMARK  172  A    between atoms: _411  and  _412
REMARK  173  A    between atoms: _417  and  _419
REMARK  174  A    between atoms: _419  and  _420
REMARK  175  A    between atoms: _419  and  _422
REMARK  176  A    between atoms: _422  and  _423
REMARK  177  A    between atoms: _426  and  _428
REMARK  178  A    between atoms: _428  and  _429
REMARK  179  A    between atoms: _431  and  _433
REMARK  180  A    between atoms: _433  and  _434
REMARK  181  A    between atoms: _433  and  _436
REMARK  182  A    between atoms: _436  and  _437
REMARK  183  A    between atoms: _437  and  _438
REMARK  184  A    between atoms: _438  and  _439
REMARK  185  A    between atoms: _439  and  _440
REMARK  186  A    between atoms: _444  and  _446
REMARK  187  A    between atoms: _446  and  _447
REMARK  188  A    between atoms: _450  and  _452
REMARK  189  A    between atoms: _452  and  _453
REMARK  190  A    between atoms: _452  and  _455
REMARK  191  A    between atoms: _457  and  _459
REMARK  192  A    between atoms: _459  and  _460
REMARK  193  A    between atoms: _463  and  _465
REMARK  194  A    between atoms: _465  and  _466
REMARK  195  A    between atoms: _465  and  _468
REMARK  196  A    between atoms: _468  and  _469
REMARK  197  A    between atoms: _471  and  _473
REMARK  198  A    between atoms: _473  and  _474
REMARK  199  A    between atoms: _473  and  _476
REMARK  200  A    between atoms: _476  and  _477
REMARK  201  A    between atoms: _480  and  _482
REMARK  202  A    between atoms: _482  and  _483
REMARK  203  A    between atoms: _482  and  _485
REMARK  204  A    between atoms: _485  and  _486
REMARK  205  A    between atoms: _489  and  _491
REMARK  206  A    between atoms: _491  and  _492
REMARK  207  A    between atoms: _491  and  _494
REMARK  208  A    between atoms: _494  and  _495
REMARK  209  A    between atoms: _495  and  _496
REMARK  210  A    between atoms: _501  and  _503
REMARK  211  A    between atoms: _503  and  _504
REMARK  212  A    between atoms: _503  and  _506
REMARK  213  A    between atoms: _506  and  _507
REMARK  214  A    between atoms: _513  and  _515
REMARK  215  A    between atoms: _515  and  _516
REMARK  216  A    between atoms: _515  and  _518
REMARK  217  A    between atoms: _518  and  _519
REMARK  218  A    between atoms: _519  and  _520
REMARK  219  A    between atoms: _520  and  _521
REMARK  220  A    between atoms: _521  and  _522
REMARK  221  A    between atoms: _526  and  _528
REMARK  222  A    between atoms: _528  and  _529
REMARK  223  A    between atoms: _528  and  _531
REMARK  224  A    between atoms: _531  and  _532
REMARK  225  A    between atoms: _537  and  _539
REMARK  226  A    between atoms: _539  and  _540
REMARK  227  A    between atoms: _539  and  _542
REMARK  228  A    between atoms: _542  and  _543
REMARK  229  A    between atoms: _549  and  _551
REMARK  230  A    between atoms: _551  and  _552
REMARK  231  A    between atoms: _551  and  _554
REMARK  232  A    between atoms: _554  and  _555
REMARK  233  A    between atoms: _555  and  _556
REMARK  234  A    between atoms: _559  and  _561
REMARK  235  A    between atoms: _561  and  _562
REMARK  236  A    between atoms: _561  and  _564
REMARK  237  A    between atoms: _564  and  _565
REMARK  238  A    between atoms: _565  and  _566
REMARK  239  A    between atoms: _571  and  _573
REMARK  240  A    between atoms: _573  and  _574
REMARK  241  A    between atoms: _573  and  _576
REMARK  242  A    between atoms: _576  and  _577
REMARK  243  A    between atoms: _577  and  _578
REMARK  244  A    between atoms: _578  and  _579
REMARK  245  A    between atoms: _588  and  _590
REMARK  246  A    between atoms: _590  and  _591
REMARK                            x       y       z     vdW  Elec       q    Type
REMARK                         _______ _______ _______ _____ _____    ______ ____
ROOT
ATOM      1  O   HOH     1       2.153  26.952  52.457  0.00  0.00    +0.000 OA
ENDROOT
TORSDOF 0
REMARK  Name = ../refined-set-2016/2xpc/2xpc_pocket.pdb
REMARK  246 active torsions:
REMARK  status: ('A' for Active; 'I' for Inactive)
REMARK    1  A    between atoms: _1  and  _3
REMARK    2  A    between atoms: _3  and  _4
REMARK    3  A    between atoms: _3  and  _6
REMARK    4  A    between atoms: _6  and  _7
REMARK    5  A    between atoms: _10  and  _12
REMARK    6  A    between atoms: _12  and  _13
REMARK    7  A    between atoms: _12  and  _15
REMARK    8  A    between atoms: _15  and  _16
REMARK    9  A    between atoms: _19  and  _21
REMARK   10  A    between atoms: _21  and  _22
REMARK   11  A    between atoms: _24  and  _26
REMARK   12  A    between atoms: _26  and  _27
REMARK   13  A    between atoms: _26  and  _29
REMARK   14  A    between atoms: _29  and  _30
REMARK   15  A    between atoms: _33  and  _35
REMARK   16  A    between atoms: _35  and  _36
REMARK   17  A    between atoms: _38  and  _40
REMARK   18  A    between atoms: _40  and  _41
REMARK   19  A    between atoms: _40  and  _43
REMARK   20  A    between atoms: _43  and  _44
REMARK   21  A    between atoms: _47  and  _49
REMARK   22  A    between atoms: _49  and  _50
REMARK   23  A    between atoms: _49  and  _52
REMARK   24  A    between atoms: _52  and  _53
REMARK   25  A    between atoms: _56  and  _58
REMARK   26  A    between atoms: _58  and  _59
REMARK   27  A    between atoms: _61  and  _63
REMARK   28  A    between atoms: _63  and  _64
REMARK   29  A    between atoms: _63  and  _66
REMARK   30  A    between atoms: _66  and  _67
REMARK   31  A    between atoms: _67  and  _68
REMARK   32  A    between atoms: _70  and  _72
REMARK   33  A    between atoms: _72  and  _73
REMARK   34  A    between atoms: _72  and  _75
REMARK   35  A    between atoms: _75  and  _76
REMARK   36  A    between atoms: _79  and  _81
REMARK   37  A    between atoms: _81  and  _82
REMARK   38  A    between atoms: _81  and  _84
REMARK   39  A    between atoms: _84  and  _85
REMARK   40  A    between atoms: _88  and  _90
REMARK   41  A    between atoms: _90  and  _91
REMARK   42  A    between atoms: _90  and  _93
REMARK   43  A    between atoms: _93  and  _94
REMARK   44  A    between atoms: _94  and  _95
REMARK   45  A    between atoms: _95  and  _96
REMARK   46  A    between atoms: _106  and  _107
REMARK   47  A    between atoms: _113  and  _114
REMARK   48  A    between atoms: _119  and  _121
REMARK   49  A    between atoms: _121  and  _122
REMARK   50  A    between atoms: _121  and  _124
REMARK   51  A    between atoms: _124  and  _125
REMARK   52  A    between atoms: _130  and  _132
REMARK   53  A    between atoms: _132  and  _133
REMARK   54  A    between atoms: _135  and  _137
REMARK   55  A    between atoms: _137  and  _138
REMARK   56  A    between atoms: _137  and  _140
REMARK   57  A    between atoms: _140  and  _141
REMARK   58  A    between atoms: _143  and  _145
REMARK   59  A    between atoms: _145  and  _146
REMARK   60  A    between atoms: _145  and  _148
REMARK   61  A    between atoms: _148  and  _149
REMARK   62  A    between atoms: _152  and  _154
REMARK   63  A    between atoms: _154  and  _155
REMARK   64  A    between atoms: _154  and  _157
REMARK   65  A    between atoms: _157  and  _158
REMARK   66  A    between atoms: _163  and  _165
REMARK   67  A    between atoms: _165  and  _166
REMARK   68  A    between atoms: _169  and  _171
REMARK   69  A    between atoms: _171  and  _172
REMARK   70  A    between atoms: _171  and  _174
REMARK   71  A    between atoms: _174  and  _175
REMARK   72  A    between atoms: _178  and  _179
REMARK   73  A    between atoms: _184  and  _186
REMARK   74  A    between atoms: _186  and  _187
REMARK   75  A    between atoms: _189  and  _191
REMARK   76  A    between atoms: _191  and  _192
REMARK   77  A    between atoms: _191  and  _194
REMARK   78  A    between atoms: _194  and  _195
REMARK   79  A    between atoms: _198  and  _200
REMARK   80  A    between atoms: _200  and  _201
REMARK   81  A    between atoms: _204  and  _206
REMARK   82  A    between atoms: _206  and  _207
REMARK   83  A    between atoms: _206  and  _209
REMARK   84  A    between atoms: _209  and  _210
REMARK   85  A    between atoms: _215  and  _217
REMARK   86  A    between atoms: _217  and  _218
REMARK   87  A    between atoms: _217  and  _220
REMARK   88  A    between atoms: _220  and  _221
REMARK   89  A    between atoms: _223  and  _225
REMARK   90  A    between atoms: _225  and  _226
REMARK   91  A    between atoms: _225  and  _228
REMARK   92  A    between atoms: _228  and  _229
REMARK   93  A    between atoms: _229  and  _230
REMARK   94  A    between atoms: _230  and  _231
REMARK   95  A    between atoms: _231  and  _232
REMARK   96  A    between atoms: _236  and  _238
REMARK   97  A    between atoms: _238  and  _239
REMARK   98  A    between atoms: _238  and  _241
REMARK   99  A    between atoms: _241  and  _242
REMARK  100  A    between atoms: _247  and  _249
REMARK  101  A    between atoms: _249  and  _250
REMARK  102  A    between atoms: _249  and  _252
REMARK  103  A    between atoms: _252  and  _253
REMARK  104  A    between atoms: _255  and  _257
REMARK  105  A    between atoms: _257  and  _258
REMARK  106  A    between atoms: _257  and  _260
REMARK  107  A    between atoms: _260  and  _261
REMARK  108  A    between atoms: _263  and  _265
REMARK  109  A    between atoms: _265  and  _266
REMARK  110  A    between atoms: _265  and  _268
REMARK  111  A    between atoms: _268  and  _269
REMARK  112  A    between atoms: _275  and  _277
REMARK  113  A    between atoms: _277  and  _278
REMARK  114  A    between atoms: _277  and  _280
REMARK  115  A    between atoms: _280  and  _281
REMARK  116  A    between atoms: _281  and  _282
REMARK  117  A    between atoms: _287  and  _289
REMARK  118  A    between atoms: _289  and  _290
REMARK  119  A    between atoms: _289  and  _292
REMARK  120  A    between atoms: _292  and  _293
REMARK  121  A    between atoms: _296  and  _298
REMARK  122  A    between atoms: _298  and  _299
REMARK  123  A    between atoms: _298  and  _301
REMARK  124  A    between atoms: _301  and  _302
REMARK  125  A    between atoms: _307  and  _309
REMARK  126  A    between atoms: _309  and  _310
REMARK  127  A    between atoms: _309  and  _312
REMARK  128  A    between atoms: _312  and  _313
REMARK  129  A    between atoms: _313  and  _314
REMARK  130  A    between atoms: _316  and  _318
REMARK  131  A    between atoms: _318  and  _319
REMARK  132  A    between atoms: _318  and  _321
REMARK  133  A    between atoms: _321  and  _322
REMARK  134  A    between atoms: _325  and  _327
REMARK  135  A    between atoms: _327  and  _328
REMARK  136  A    between atoms: _327  and  _330
REMARK  137  A    between atoms: _330  and  _331
REMARK  138  A    between atoms: _331  and  _332
REMARK  139  A    between atoms: _332  and  _333
REMARK  140  A    between atoms: _342  and  _344
REMARK  141  A    between atoms: _344  and  _345
REMARK  142  A    between atoms: _344  and  _347
REMARK  143  A    between atoms: _347  and  _348
REMARK  144  A    between atoms: _353  and  _354
REMARK  145  A    between atoms: _356  and  _358
REMARK  146  A    between atoms: _358  and  _359
REMARK  147  A    between atoms: _358  and  _365
REMARK  148  A    between atoms: _359  and  _360
REMARK  149  A    between atoms: _360  and  _361
REMARK  150  A    between atoms: _361  and  _362
REMARK  151  A    between atoms: _362  and  _363
REMARK  152  A    between atoms: _370  and  _372
REMARK  153  A    between atoms: _372  and  _373
REMARK  154  A    between atoms: _372  and  _375
REMARK  155  A    between atoms: _375  and  _376
REMARK  156  A    between atoms: _378  and  _380
REMARK  157  A    between atoms: _380  and  _381
REMARK  158  A    between atoms: _380  and  _383
REMARK  159  A    between atoms: _383  and  _384
REMARK  160  A    between atoms: _384  and  _385
REMARK  161  A    between atoms: _385  and  _386
REMARK  162  A    between atoms: _386  and  _387
REMARK  163  A    between atoms: _391  and  _393
REMARK  164  A    between atoms: _393  and  _394
REMARK  165  A    between atoms: _397  and  _399
REMARK  166  A    between atoms: _399  and  _400
REMARK  167  A    between atoms: _399  and  _402
REMARK  168  A    between atoms: _402  and  _403
REMARK  169  A    between atoms: _406  and  _408
REMARK  170  A    between atoms: _408  and  _409
REMARK  171  A    between atoms: _408  and  _411
REMARK  172  A    between atoms: _411  and  _412
REMARK  173  A    between atoms: _417  and  _419
REMARK  174  A    between atoms: _419  and  _420
REMARK  175  A    between atoms: _419  and  _422
REMARK  176  A    between atoms: _422  and  _423
REMARK  177  A    between atoms: _426  and  _428
REMARK  178  A    between atoms: _428  and  _429
REMARK  179  A    between atoms: _431  and  _433
REMARK  180  A    between atoms: _433  and  _434
REMARK  181  A    between atoms: _433  and  _436
REMARK  182  A    between atoms: _436  and  _437
REMARK  183  A    between atoms: _437  and  _438
REMARK  184  A    between atoms: _438  and  _439
REMARK  185  A    between atoms: _439  and  _440
REMARK  186  A    between atoms: _444  and  _446
REMARK  187  A    between atoms: _446  and  _447
REMARK  188  A    between atoms: _450  and  _452
REMARK  189  A    between atoms: _452  and  _453
REMARK  190  A    between atoms: _452  and  _455
REMARK  191  A    between atoms: _457  and  _459
REMARK  192  A    between atoms: _459  and  _460
REMARK  193  A    between atoms: _463  and  _465
REMARK  194  A    between atoms: _465  and  _466
REMARK  195  A    between atoms: _465  and  _468
REMARK  196  A    between atoms: _468  and  _469
REMARK  197  A    between atoms: _471  and  _473
REMARK  198  A    between atoms: _473  and  _474
REMARK  199  A    between atoms: _473  and  _476
REMARK  200  A    between atoms: _476  and  _477
REMARK  201  A    between atoms: _480  and  _482
REMARK  202  A    between atoms: _482  and  _483
REMARK  203  A    between atoms: _482  and  _485
REMARK  204  A    between atoms: _485  and  _486
REMARK  205  A    between atoms: _489  and  _491
REMARK  206  A    between atoms: _491  and  _492
REMARK  207  A    between atoms: _491  and  _494
REMARK  208  A    between atoms: _494  and  _495
REMARK  209  A    between atoms: _495  and  _496
REMARK  210  A    between atoms: _501  and  _503
REMARK  211  A    between atoms: _503  and  _504
REMARK  212  A    between atoms: _503  and  _506
REMARK  213  A    between atoms: _506  and  _507
REMARK  214  A    between atoms: _513  and  _515
REMARK  215  A    between atoms: _515  and  _516
REMARK  216  A    between atoms: _515  and  _518
REMARK  217  A    between atoms: _518  and  _519
REMARK  218  A    between atoms: _519  and  _520
REMARK  219  A    between atoms: _520  and  _521
REMARK  220  A    between atoms: _521  and  _522
REMARK  221  A    between atoms: _526  and  _528
REMARK  222  A    between atoms: _528  and  _529
REMARK  223  A    between atoms: _528  and  _531
REMARK  224  A    between atoms: _531  and  _532
REMARK  225  A    between atoms: _537  and  _539
REMARK  226  A    between atoms: _539  and  _540
REMARK  227  A    between atoms: _539  and  _542
REMARK  228  A    between atoms: _542  and  _543
REMARK  229  A    between atoms: _549  and  _551
REMARK  230  A    between atoms: _551  and  _552
REMARK  231  A    between atoms: _551  and  _554
REMARK  232  A    between atoms: _554  and  _555
REMARK  233  A    between atoms: _555  and  _556
REMARK  234  A    between atoms: _559  and  _561
REMARK  235  A    between atoms: _561  and  _562
REMARK  236  A    between atoms: _561  and  _564
REMARK  237  A    between atoms: _564  and  _565
REMARK  238  A    between atoms: _565  and  _566
REMARK  239  A    between atoms: _571  and  _573
REMARK  240  A    between atoms: _573  and  _574
REMARK  241  A    between atoms: _573  and  _576
REMARK  242  A    between atoms: _576  and  _577
REMARK  243  A    between atoms: _577  and  _578
REMARK  244  A    between atoms: _578  and  _579
REMARK  245  A    between atoms: _588  and  _590
REMARK  246  A    between atoms: _590  and  _591
REMARK                            x       y       z     vdW  Elec       q    Type
REMARK                         _______ _______ _______ _____ _____    ______ ____
ROOT
ATOM      1  O   HOH     1      10.494  26.136  39.721  0.00  0.00    +0.000 OA
ENDROOT
TORSDOF 0
REMARK  Name = ../refined-set-2016/2xpc/2xpc_pocket.pdb
REMARK  246 active torsions:
REMARK  status: ('A' for Active; 'I' for Inactive)
REMARK    1  A    between atoms: _1  and  _3
REMARK    2  A    between atoms: _3  and  _4
REMARK    3  A    between atoms: _3  and  _6
REMARK    4  A    between atoms: _6  and  _7
REMARK    5  A    between atoms: _10  and  _12
REMARK    6  A    between atoms: _12  and  _13
REMARK    7  A    between atoms: _12  and  _15
REMARK    8  A    between atoms: _15  and  _16
REMARK    9  A    between atoms: _19  and  _21
REMARK   10  A    between atoms: _21  and  _22
REMARK   11  A    between atoms: _24  and  _26
REMARK   12  A    between atoms: _26  and  _27
REMARK   13  A    between atoms: _26  and  _29
REMARK   14  A    between atoms: _29  and  _30
REMARK   15  A    between atoms: _33  and  _35
REMARK   16  A    between atoms: _35  and  _36
REMARK   17  A    between atoms: _38  and  _40
REMARK   18  A    between atoms: _40  and  _41
REMARK   19  A    between atoms: _40  and  _43
REMARK   20  A    between atoms: _43  and  _44
REMARK   21  A    between atoms: _47  and  _49
REMARK   22  A    between atoms: _49  and  _50
REMARK   23  A    between atoms: _49  and  _52
REMARK   24  A    between atoms: _52  and  _53
REMARK   25  A    between atoms: _56  and  _58
REMARK   26  A    between atoms: _58  and  _59
REMARK   27  A    between atoms: _61  and  _63
REMARK   28  A    between atoms: _63  and  _64
REMARK   29  A    between atoms: _63  and  _66
REMARK   30  A    between atoms: _66  and  _67
REMARK   31  A    between atoms: _67  and  _68
REMARK   32  A    between atoms: _70  and  _72
REMARK   33  A    between atoms: _72  and  _73
REMARK   34  A    between atoms: _72  and  _75
REMARK   35  A    between atoms: _75  and  _76
REMARK   36  A    between atoms: _79  and  _81
REMARK   37  A    between atoms: _81  and  _82
REMARK   38  A    between atoms: _81  and  _84
REMARK   39  A    between atoms: _84  and  _85
REMARK   40  A    between atoms: _88  and  _90
REMARK   41  A    between atoms: _90  and  _91
REMARK   42  A    between atoms: _90  and  _93
REMARK   43  A    between atoms: _93  and  _94
REMARK   44  A    between atoms: _94  and  _95
REMARK   45  A    between atoms: _95  and  _96
REMARK   46  A    between atoms: _106  and  _107
REMARK   47  A    between atoms: _113  and  _114
REMARK   48  A    between atoms: _119  and  _121
REMARK   49  A    between atoms: _121  and  _122
REMARK   50  A    between atoms: _121  and  _124
REMARK   51  A    between atoms: _124  and  _125
REMARK   52  A    between atoms: _130  and  _132
REMARK   53  A    between atoms: _132  and  _133
REMARK   54  A    between atoms: _135  and  _137
REMARK   55  A    between atoms: _137  and  _138
REMARK   56  A    between atoms: _137  and  _140
REMARK   57  A    between atoms: _140  and  _141
REMARK   58  A    between atoms: _143  and  _145
REMARK   59  A    between atoms: _145  and  _146
REMARK   60  A    between atoms: _145  and  _148
REMARK   61  A    between atoms: _148  and  _149
REMARK   62  A    between atoms: _152  and  _154
REMARK   63  A    between atoms: _154  and  _155
REMARK   64  A    between atoms: _154  and  _157
REMARK   65  A    between atoms: _157  and  _158
REMARK   66  A    between atoms: _163  and  _165
REMARK   67  A    between atoms: _165  and  _166
REMARK   68  A    between atoms: _169  and  _171
REMARK   69  A    between atoms: _171  and  _172
REMARK   70  A    between atoms: _171  and  _174
REMARK   71  A    between atoms: _174  and  _175
REMARK   72  A    between atoms: _178  and  _179
REMARK   73  A    between atoms: _184  and  _186
REMARK   74  A    between atoms: _186  and  _187
REMARK   75  A    between atoms: _189  and  _191
REMARK   76  A    between atoms: _191  and  _192
REMARK   77  A    between atoms: _191  and  _194
REMARK   78  A    between atoms: _194  and  _195
REMARK   79  A    between atoms: _198  and  _200
REMARK   80  A    between atoms: _200  and  _201
REMARK   81  A    between atoms: _204  and  _206
REMARK   82  A    between atoms: _206  and  _207
REMARK   83  A    between atoms: _206  and  _209
REMARK   84  A    between atoms: _209  and  _210
REMARK   85  A    between atoms: _215  and  _217
REMARK   86  A    between atoms: _217  and  _218
REMARK   87  A    between atoms: _217  and  _220
REMARK   88  A    between atoms: _220  and  _221
REMARK   89  A    between atoms: _223  and  _225
REMARK   90  A    between atoms: _225  and  _226
REMARK   91  A    between atoms: _225  and  _228
REMARK   92  A    between atoms: _228  and  _229
REMARK   93  A    between atoms: _229  and  _230
REMARK   94  A    between atoms: _230  and  _231
REMARK   95  A    between atoms: _231  and  _232
REMARK   96  A    between atoms: _236  and  _238
REMARK   97  A    between atoms: _238  and  _239
REMARK   98  A    between atoms: _238  and  _241
REMARK   99  A    between atoms: _241  and  _242
REMARK  100  A    between atoms: _247  and  _249
REMARK  101  A    between atoms: _249  and  _250
REMARK  102  A    between atoms: _249  and  _252
REMARK  103  A    between atoms: _252  and  _253
REMARK  104  A    between atoms: _255  and  _257
REMARK  105  A    between atoms: _257  and  _258
REMARK  106  A    between atoms: _257  and  _260
REMARK  107  A    between atoms: _260  and  _261
REMARK  108  A    between atoms: _263  and  _265
REMARK  109  A    between atoms: _265  and  _266
REMARK  110  A    between atoms: _265  and  _268
REMARK  111  A    between atoms: _268  and  _269
REMARK  112  A    between atoms: _275  and  _277
REMARK  113  A    between atoms: _277  and  _278
REMARK  114  A    between atoms: _277  and  _280
REMARK  115  A    between atoms: _280  and  _281
REMARK  116  A    between atoms: _281  and  _282
REMARK  117  A    between atoms: _287  and  _289
REMARK  118  A    between atoms: _289  and  _290
REMARK  119  A    between atoms: _289  and  _292
REMARK  120  A    between atoms: _292  and  _293
REMARK  121  A    between atoms: _296  and  _298
REMARK  122  A    between atoms: _298  and  _299
REMARK  123  A    between atoms: _298  and  _301
REMARK  124  A    between atoms: _301  and  _302
REMARK  125  A    between atoms: _307  and  _309
REMARK  126  A    between atoms: _309  and  _310
REMARK  127  A    between atoms: _309  and  _312
REMARK  128  A    between atoms: _312  and  _313
REMARK  129  A    between atoms: _313  and  _314
REMARK  130  A    between atoms: _316  and  _318
REMARK  131  A    between atoms: _318  and  _319
REMARK  132  A    between atoms: _318  and  _321
REMARK  133  A    between atoms: _321  and  _322
REMARK  134  A    between atoms: _325  and  _327
REMARK  135  A    between atoms: _327  and  _328
REMARK  136  A    between atoms: _327  and  _330
REMARK  137  A    between atoms: _330  and  _331
REMARK  138  A    between atoms: _331  and  _332
REMARK  139  A    between atoms: _332  and  _333
REMARK  140  A    between atoms: _342  and  _344
REMARK  141  A    between atoms: _344  and  _345
REMARK  142  A    between atoms: _344  and  _347
REMARK  143  A    between atoms: _347  and  _348
REMARK  144  A    between atoms: _353  and  _354
REMARK  145  A    between atoms: _356  and  _358
REMARK  146  A    between atoms: _358  and  _359
REMARK  147  A    between atoms: _358  and  _365
REMARK  148  A    between atoms: _359  and  _360
REMARK  149  A    between atoms: _360  and  _361
REMARK  150  A    between atoms: _361  and  _362
REMARK  151  A    between atoms: _362  and  _363
REMARK  152  A    between atoms: _370  and  _372
REMARK  153  A    between atoms: _372  and  _373
REMARK  154  A    between atoms: _372  and  _375
REMARK  155  A    between atoms: _375  and  _376
REMARK  156  A    between atoms: _378  and  _380
REMARK  157  A    between atoms: _380  and  _381
REMARK  158  A    between atoms: _380  and  _383
REMARK  159  A    between atoms: _383  and  _384
REMARK  160  A    between atoms: _384  and  _385
REMARK  161  A    between atoms: _385  and  _386
REMARK  162  A    between atoms: _386  and  _387
REMARK  163  A    between atoms: _391  and  _393
REMARK  164  A    between atoms: _393  and  _394
REMARK  165  A    between atoms: _397  and  _399
REMARK  166  A    between atoms: _399  and  _400
REMARK  167  A    between atoms: _399  and  _402
REMARK  168  A    between atoms: _402  and  _403
REMARK  169  A    between atoms: _406  and  _408
REMARK  170  A    between atoms: _408  and  _409
REMARK  171  A    between atoms: _408  and  _411
REMARK  172  A    between atoms: _411  and  _412
REMARK  173  A    between atoms: _417  and  _419
REMARK  174  A    between atoms: _419  and  _420
REMARK  175  A    between atoms: _419  and  _422
REMARK  176  A    between atoms: _422  and  _423
REMARK  177  A    between atoms: _426  and  _428
REMARK  178  A    between atoms: _428  and  _429
REMARK  179  A    between atoms: _431  and  _433
REMARK  180  A    between atoms: _433  and  _434
REMARK  181  A    between atoms: _433  and  _436
REMARK  182  A    between atoms: _436  and  _437
REMARK  183  A    between atoms: _437  and  _438
REMARK  184  A    between atoms: _438  and  _439
REMARK  185  A    between atoms: _439  and  _440
REMARK  186  A    between atoms: _444  and  _446
REMARK  187  A    between atoms: _446  and  _447
REMARK  188  A    between atoms: _450  and  _452
REMARK  189  A    between atoms: _452  and  _453
REMARK  190  A    between atoms: _452  and  _455
REMARK  191  A    between atoms: _457  and  _459
REMARK  192  A    between atoms: _459  and  _460
REMARK  193  A    between atoms: _463  and  _465
REMARK  194  A    between atoms: _465  and  _466
REMARK  195  A    between atoms: _465  and  _468
REMARK  196  A    between atoms: _468  and  _469
REMARK  197  A    between atoms: _471  and  _473
REMARK  198  A    between atoms: _473  and  _474
REMARK  199  A    between atoms: _473  and  _476
REMARK  200  A    between atoms: _476  and  _477
REMARK  201  A    between atoms: _480  and  _482
REMARK  202  A    between atoms: _482  and  _483
REMARK  203  A    between atoms: _482  and  _485
REMARK  204  A    between atoms: _485  and  _486
REMARK  205  A    between atoms: _489  and  _491
REMARK  206  A    between atoms: _491  and  _492
REMARK  207  A    between atoms: _491  and  _494
REMARK  208  A    between atoms: _494  and  _495
REMARK  209  A    between atoms: _495  and  _496
REMARK  210  A    between atoms: _501  and  _503
REMARK  211  A    between atoms: _503  and  _504
REMARK  212  A    between atoms: _503  and  _506
REMARK  213  A    between atoms: _506  and  _507
REMARK  214  A    between atoms: _513  and  _515
REMARK  215  A    between atoms: _515  and  _516
REMARK  216  A    between atoms: _515  and  _518
REMARK  217  A    between atoms: _518  and  _519
REMARK  218  A    between atoms: _519  and  _520
REMARK  219  A    between atoms: _520  and  _521
REMARK  220  A    between atoms: _521  and  _522
REMARK  221  A    between atoms: _526  and  _528
REMARK  222  A    between atoms: _528  and  _529
REMARK  223  A    between atoms: _528  and  _531
REMARK  224  A    between atoms: _531  and  _532
REMARK  225  A    between atoms: _537  and  _539
REMARK  226  A    between atoms: _539  and  _540
REMARK  227  A    between atoms: _539  and  _542
REMARK  228  A    between atoms: _542  and  _543
REMARK  229  A    between atoms: _549  and  _551
REMARK  230  A    between atoms: _551  and  _552
REMARK  231  A    between atoms: _551  and  _554
REMARK  232  A    between atoms: _554  and  _555
REMARK  233  A    between atoms: _555  and  _556
REMARK  234  A    between atoms: _559  and  _561
REMARK  235  A    between atoms: _561  and  _562
REMARK  236  A    between atoms: _561  and  _564
REMARK  237  A    between atoms: _564  and  _565
REMARK  238  A    between atoms: _565  and  _566
REMARK  239  A    between atoms: _571  and  _573
REMARK  240  A    between atoms: _573  and  _574
REMARK  241  A    between atoms: _573  and  _576
REMARK  242  A    between atoms: _576  and  _577
REMARK  243  A    between atoms: _577  and  _578
REMARK  244  A    between atoms: _578  and  _579
REMARK  245  A    between atoms: _588  and  _590
REMARK  246  A    between atoms: _590  and  _591
REMARK                            x       y       z     vdW  Elec       q    Type
REMARK                         _______ _______ _______ _____ _____    ______ ____
ROOT
ATOM      1  O   HOH     1       8.060  30.936  42.886  0.00  0.00    +0.000 OA
ENDROOT
TORSDOF 0
REMARK  Name = ../refined-set-2016/2xpc/2xpc_pocket.pdb
REMARK  246 active torsions:
REMARK  status: ('A' for Active; 'I' for Inactive)
REMARK    1  A    between atoms: _1  and  _3
REMARK    2  A    between atoms: _3  and  _4
REMARK    3  A    between atoms: _3  and  _6
REMARK    4  A    between atoms: _6  and  _7
REMARK    5  A    between atoms: _10  and  _12
REMARK    6  A    between atoms: _12  and  _13
REMARK    7  A    between atoms: _12  and  _15
REMARK    8  A    between atoms: _15  and  _16
REMARK    9  A    between atoms: _19  and  _21
REMARK   10  A    between atoms: _21  and  _22
REMARK   11  A    between atoms: _24  and  _26
REMARK   12  A    between atoms: _26  and  _27
REMARK   13  A    between atoms: _26  and  _29
REMARK   14  A    between atoms: _29  and  _30
REMARK   15  A    between atoms: _33  and  _35
REMARK   16  A    between atoms: _35  and  _36
REMARK   17  A    between atoms: _38  and  _40
REMARK   18  A    between atoms: _40  and  _41
REMARK   19  A    between atoms: _40  and  _43
REMARK   20  A    between atoms: _43  and  _44
REMARK   21  A    between atoms: _47  and  _49
REMARK   22  A    between atoms: _49  and  _50
REMARK   23  A    between atoms: _49  and  _52
REMARK   24  A    between atoms: _52  and  _53
REMARK   25  A    between atoms: _56  and  _58
REMARK   26  A    between atoms: _58  and  _59
REMARK   27  A    between atoms: _61  and  _63
REMARK   28  A    between atoms: _63  and  _64
REMARK   29  A    between atoms: _63  and  _66
REMARK   30  A    between atoms: _66  and  _67
REMARK   31  A    between atoms: _67  and  _68
REMARK   32  A    between atoms: _70  and  _72
REMARK   33  A    between atoms: _72  and  _73
REMARK   34  A    between atoms: _72  and  _75
REMARK   35  A    between atoms: _75  and  _76
REMARK   36  A    between atoms: _79  and  _81
REMARK   37  A    between atoms: _81  and  _82
REMARK   38  A    between atoms: _81  and  _84
REMARK   39  A    between atoms: _84  and  _85
REMARK   40  A    between atoms: _88  and  _90
REMARK   41  A    between atoms: _90  and  _91
REMARK   42  A    between atoms: _90  and  _93
REMARK   43  A    between atoms: _93  and  _94
REMARK   44  A    between atoms: _94  and  _95
REMARK   45  A    between atoms: _95  and  _96
REMARK   46  A    between atoms: _106  and  _107
REMARK   47  A    between atoms: _113  and  _114
REMARK   48  A    between atoms: _119  and  _121
REMARK   49  A    between atoms: _121  and  _122
REMARK   50  A    between atoms: _121  and  _124
REMARK   51  A    between atoms: _124  and  _125
REMARK   52  A    between atoms: _130  and  _132
REMARK   53  A    between atoms: _132  and  _133
REMARK   54  A    between atoms: _135  and  _137
REMARK   55  A    between atoms: _137  and  _138
REMARK   56  A    between atoms: _137  and  _140
REMARK   57  A    between atoms: _140  and  _141
REMARK   58  A    between atoms: _143  and  _145
REMARK   59  A    between atoms: _145  and  _146
REMARK   60  A    between atoms: _145  and  _148
REMARK   61  A    between atoms: _148  and  _149
REMARK   62  A    between atoms: _152  and  _154
REMARK   63  A    between atoms: _154  and  _155
REMARK   64  A    between atoms: _154  and  _157
REMARK   65  A    between atoms: _157  and  _158
REMARK   66  A    between atoms: _163  and  _165
REMARK   67  A    between atoms: _165  and  _166
REMARK   68  A    between atoms: _169  and  _171
REMARK   69  A    between atoms: _171  and  _172
REMARK   70  A    between atoms: _171  and  _174
REMARK   71  A    between atoms: _174  and  _175
REMARK   72  A    between atoms: _178  and  _179
REMARK   73  A    between atoms: _184  and  _186
REMARK   74  A    between atoms: _186  and  _187
REMARK   75  A    between atoms: _189  and  _191
REMARK   76  A    between atoms: _191  and  _192
REMARK   77  A    between atoms: _191  and  _194
REMARK   78  A    between atoms: _194  and  _195
REMARK   79  A    between atoms: _198  and  _200
REMARK   80  A    between atoms: _200  and  _201
REMARK   81  A    between atoms: _204  and  _206
REMARK   82  A    between atoms: _206  and  _207
REMARK   83  A    between atoms: _206  and  _209
REMARK   84  A    between atoms: _209  and  _210
REMARK   85  A    between atoms: _215  and  _217
REMARK   86  A    between atoms: _217  and  _218
REMARK   87  A    between atoms: _217  and  _220
REMARK   88  A    between atoms: _220  and  _221
REMARK   89  A    between atoms: _223  and  _225
REMARK   90  A    between atoms: _225  and  _226
REMARK   91  A    between atoms: _225  and  _228
REMARK   92  A    between atoms: _228  and  _229
REMARK   93  A    between atoms: _229  and  _230
REMARK   94  A    between atoms: _230  and  _231
REMARK   95  A    between atoms: _231  and  _232
REMARK   96  A    between atoms: _236  and  _238
REMARK   97  A    between atoms: _238  and  _239
REMARK   98  A    between atoms: _238  and  _241
REMARK   99  A    between atoms: _241  and  _242
REMARK  100  A    between atoms: _247  and  _249
REMARK  101  A    between atoms: _249  and  _250
REMARK  102  A    between atoms: _249  and  _252
REMARK  103  A    between atoms: _252  and  _253
REMARK  104  A    between atoms: _255  and  _257
REMARK  105  A    between atoms: _257  and  _258
REMARK  106  A    between atoms: _257  and  _260
REMARK  107  A    between atoms: _260  and  _261
REMARK  108  A    between atoms: _263  and  _265
REMARK  109  A    between atoms: _265  and  _266
REMARK  110  A    between atoms: _265  and  _268
REMARK  111  A    between atoms: _268  and  _269
REMARK  112  A    between atoms: _275  and  _277
REMARK  113  A    between atoms: _277  and  _278
REMARK  114  A    between atoms: _277  and  _280
REMARK  115  A    between atoms: _280  and  _281
REMARK  116  A    between atoms: _281  and  _282
REMARK  117  A    between atoms: _287  and  _289
REMARK  118  A    between atoms: _289  and  _290
REMARK  119  A    between atoms: _289  and  _292
REMARK  120  A    between atoms: _292  and  _293
REMARK  121  A    between atoms: _296  and  _298
REMARK  122  A    between atoms: _298  and  _299
REMARK  123  A    between atoms: _298  and  _301
REMARK  124  A    between atoms: _301  and  _302
REMARK  125  A    between atoms: _307  and  _309
REMARK  126  A    between atoms: _309  and  _310
REMARK  127  A    between atoms: _309  and  _312
REMARK  128  A    between atoms: _312  and  _313
REMARK  129  A    between atoms: _313  and  _314
REMARK  130  A    between atoms: _316  and  _318
REMARK  131  A    between atoms: _318  and  _319
REMARK  132  A    between atoms: _318  and  _321
REMARK  133  A    between atoms: _321  and  _322
REMARK  134  A    between atoms: _325  and  _327
REMARK  135  A    between atoms: _327  and  _328
REMARK  136  A    between atoms: _327  and  _330
REMARK  137  A    between atoms: _330  and  _331
REMARK  138  A    between atoms: _331  and  _332
REMARK  139  A    between atoms: _332  and  _333
REMARK  140  A    between atoms: _342  and  _344
REMARK  141  A    between atoms: _344  and  _345
REMARK  142  A    between atoms: _344  and  _347
REMARK  143  A    between atoms: _347  and  _348
REMARK  144  A    between atoms: _353  and  _354
REMARK  145  A    between atoms: _356  and  _358
REMARK  146  A    between atoms: _358  and  _359
REMARK  147  A    between atoms: _358  and  _365
REMARK  148  A    between atoms: _359  and  _360
REMARK  149  A    between atoms: _360  and  _361
REMARK  150  A    between atoms: _361  and  _362
REMARK  151  A    between atoms: _362  and  _363
REMARK  152  A    between atoms: _370  and  _372
REMARK  153  A    between atoms: _372  and  _373
REMARK  154  A    between atoms: _372  and  _375
REMARK  155  A    between atoms: _375  and  _376
REMARK  156  A    between atoms: _378  and  _380
REMARK  157  A    between atoms: _380  and  _381
REMARK  158  A    between atoms: _380  and  _383
REMARK  159  A    between atoms: _383  and  _384
REMARK  160  A    between atoms: _384  and  _385
REMARK  161  A    between atoms: _385  and  _386
REMARK  162  A    between atoms: _386  and  _387
REMARK  163  A    between atoms: _391  and  _393
REMARK  164  A    between atoms: _393  and  _394
REMARK  165  A    between atoms: _397  and  _399
REMARK  166  A    between atoms: _399  and  _400
REMARK  167  A    between atoms: _399  and  _402
REMARK  168  A    between atoms: _402  and  _403
REMARK  169  A    between atoms: _406  and  _408
REMARK  170  A    between atoms: _408  and  _409
REMARK  171  A    between atoms: _408  and  _411
REMARK  172  A    between atoms: _411  and  _412
REMARK  173  A    between atoms: _417  and  _419
REMARK  174  A    between atoms: _419  and  _420
REMARK  175  A    between atoms: _419  and  _422
REMARK  176  A    between atoms: _422  and  _423
REMARK  177  A    between atoms: _426  and  _428
REMARK  178  A    between atoms: _428  and  _429
REMARK  179  A    between atoms: _431  and  _433
REMARK  180  A    between atoms: _433  and  _434
REMARK  181  A    between atoms: _433  and  _436
REMARK  182  A    between atoms: _436  and  _437
REMARK  183  A    between atoms: _437  and  _438
REMARK  184  A    between atoms: _438  and  _439
REMARK  185  A    between atoms: _439  and  _440
REMARK  186  A    between atoms: _444  and  _446
REMARK  187  A    between atoms: _446  and  _447
REMARK  188  A    between atoms: _450  and  _452
REMARK  189  A    between atoms: _452  and  _453
REMARK  190  A    between atoms: _452  and  _455
REMARK  191  A    between atoms: _457  and  _459
REMARK  192  A    between atoms: _459  and  _460
REMARK  193  A    between atoms: _463  and  _465
REMARK  194  A    between atoms: _465  and  _466
REMARK  195  A    between atoms: _465  and  _468
REMARK  196  A    between atoms: _468  and  _469
REMARK  197  A    between atoms: _471  and  _473
REMARK  198  A    between atoms: _473  and  _474
REMARK  199  A    between atoms: _473  and  _476
REMARK  200  A    between atoms: _476  and  _477
REMARK  201  A    between atoms: _480  and  _482
REMARK  202  A    between atoms: _482  and  _483
REMARK  203  A    between atoms: _482  and  _485
REMARK  204  A    between atoms: _485  and  _486
REMARK  205  A    between atoms: _489  and  _491
REMARK  206  A    between atoms: _491  and  _492
REMARK  207  A    between atoms: _491  and  _494
REMARK  208  A    between atoms: _494  and  _495
REMARK  209  A    between atoms: _495  and  _496
REMARK  210  A    between atoms: _501  and  _503
REMARK  211  A    between atoms: _503  and  _504
REMARK  212  A    between atoms: _503  and  _506
REMARK  213  A    between atoms: _506  and  _507
REMARK  214  A    between atoms: _513  and  _515
REMARK  215  A    between atoms: _515  and  _516
REMARK  216  A    between atoms: _515  and  _518
REMARK  217  A    between atoms: _518  and  _519
REMARK  218  A    between atoms: _519  and  _520
REMARK  219  A    between atoms: _520  and  _521
REMARK  220  A    between atoms: _521  and  _522
REMARK  221  A    between atoms: _526  and  _528
REMARK  222  A    between atoms: _528  and  _529
REMARK  223  A    between atoms: _528  and  _531
REMARK  224  A    between atoms: _531  and  _532
REMARK  225  A    between atoms: _537  and  _539
REMARK  226  A    between atoms: _539  and  _540
REMARK  227  A    between atoms: _539  and  _542
REMARK  228  A    between atoms: _542  and  _543
REMARK  229  A    between atoms: _549  and  _551
REMARK  230  A    between atoms: _551  and  _552
REMARK  231  A    between atoms: _551  and  _554
REMARK  232  A    between atoms: _554  and  _555
REMARK  233  A    between atoms: _555  and  _556
REMARK  234  A    between atoms: _559  and  _561
REMARK  235  A    between atoms: _561  and  _562
REMARK  236  A    between atoms: _561  and  _564
REMARK  237  A    between atoms: _564  and  _565
REMARK  238  A    between atoms: _565  and  _566
REMARK  239  A    between atoms: _571  and  _573
REMARK  240  A    between atoms: _573  and  _574
REMARK  241  A    between atoms: _573  and  _576
REMARK  242  A    between atoms: _576  and  _577
REMARK  243  A    between atoms: _577  and  _578
REMARK  244  A    between atoms: _578  and  _579
REMARK  245  A    between atoms: _588  and  _590
REMARK  246  A    between atoms: _590  and  _591
REMARK                            x       y       z     vdW  Elec       q    Type
REMARK                         _______ _______ _______ _____ _____    ______ ____
ROOT
ATOM      1  O   HOH     1      10.637  27.695  43.062  0.00  0.00    +0.000 OA
ENDROOT
TORSDOF 0
REMARK  Name = ../refined-set-2016/2xpc/2xpc_pocket.pdb
REMARK  246 active torsions:
REMARK  status: ('A' for Active; 'I' for Inactive)
REMARK    1  A    between atoms: _1  and  _3
REMARK    2  A    between atoms: _3  and  _4
REMARK    3  A    between atoms: _3  and  _6
REMARK    4  A    between atoms: _6  and  _7
REMARK    5  A    between atoms: _10  and  _12
REMARK    6  A    between atoms: _12  and  _13
REMARK    7  A    between atoms: _12  and  _15
REMARK    8  A    between atoms: _15  and  _16
REMARK    9  A    between atoms: _19  and  _21
REMARK   10  A    between atoms: _21  and  _22
REMARK   11  A    between atoms: _24  and  _26
REMARK   12  A    between atoms: _26  and  _27
REMARK   13  A    between atoms: _26  and  _29
REMARK   14  A    between atoms: _29  and  _30
REMARK   15  A    between atoms: _33  and  _35
REMARK   16  A    between atoms: _35  and  _36
REMARK   17  A    between atoms: _38  and  _40
REMARK   18  A    between atoms: _40  and  _41
REMARK   19  A    between atoms: _40  and  _43
REMARK   20  A    between atoms: _43  and  _44
REMARK   21  A    between atoms: _47  and  _49
REMARK   22  A    between atoms: _49  and  _50
REMARK   23  A    between atoms: _49  and  _52
REMARK   24  A    between atoms: _52  and  _53
REMARK   25  A    between atoms: _56  and  _58
REMARK   26  A    between atoms: _58  and  _59
REMARK   27  A    between atoms: _61  and  _63
REMARK   28  A    between atoms: _63  and  _64
REMARK   29  A    between atoms: _63  and  _66
REMARK   30  A    between atoms: _66  and  _67
REMARK   31  A    between atoms: _67  and  _68
REMARK   32  A    between atoms: _70  and  _72
REMARK   33  A    between atoms: _72  and  _73
REMARK   34  A    between atoms: _72  and  _75
REMARK   35  A    between atoms: _75  and  _76
REMARK   36  A    between atoms: _79  and  _81
REMARK   37  A    between atoms: _81  and  _82
REMARK   38  A    between atoms: _81  and  _84
REMARK   39  A    between atoms: _84  and  _85
REMARK   40  A    between atoms: _88  and  _90
REMARK   41  A    between atoms: _90  and  _91
REMARK   42  A    between atoms: _90  and  _93
REMARK   43  A    between atoms: _93  and  _94
REMARK   44  A    between atoms: _94  and  _95
REMARK   45  A    between atoms: _95  and  _96
REMARK   46  A    between atoms: _106  and  _107
REMARK   47  A    between atoms: _113  and  _114
REMARK   48  A    between atoms: _119  and  _121
REMARK   49  A    between atoms: _121  and  _122
REMARK   50  A    between atoms: _121  and  _124
REMARK   51  A    between atoms: _124  and  _125
REMARK   52  A    between atoms: _130  and  _132
REMARK   53  A    between atoms: _132  and  _133
REMARK   54  A    between atoms: _135  and  _137
REMARK   55  A    between atoms: _137  and  _138
REMARK   56  A    between atoms: _137  and  _140
REMARK   57  A    between atoms: _140  and  _141
REMARK   58  A    between atoms: _143  and  _145
REMARK   59  A    between atoms: _145  and  _146
REMARK   60  A    between atoms: _145  and  _148
REMARK   61  A    between atoms: _148  and  _149
REMARK   62  A    between atoms: _152  and  _154
REMARK   63  A    between atoms: _154  and  _155
REMARK   64  A    between atoms: _154  and  _157
REMARK   65  A    between atoms: _157  and  _158
REMARK   66  A    between atoms: _163  and  _165
REMARK   67  A    between atoms: _165  and  _166
REMARK   68  A    between atoms: _169  and  _171
REMARK   69  A    between atoms: _171  and  _172
REMARK   70  A    between atoms: _171  and  _174
REMARK   71  A    between atoms: _174  and  _175
REMARK   72  A    between atoms: _178  and  _179
REMARK   73  A    between atoms: _184  and  _186
REMARK   74  A    between atoms: _186  and  _187
REMARK   75  A    between atoms: _189  and  _191
REMARK   76  A    between atoms: _191  and  _192
REMARK   77  A    between atoms: _191  and  _194
REMARK   78  A    between atoms: _194  and  _195
REMARK   79  A    between atoms: _198  and  _200
REMARK   80  A    between atoms: _200  and  _201
REMARK   81  A    between atoms: _204  and  _206
REMARK   82  A    between atoms: _206  and  _207
REMARK   83  A    between atoms: _206  and  _209
REMARK   84  A    between atoms: _209  and  _210
REMARK   85  A    between atoms: _215  and  _217
REMARK   86  A    between atoms: _217  and  _218
REMARK   87  A    between atoms: _217  and  _220
REMARK   88  A    between atoms: _220  and  _221
REMARK   89  A    between atoms: _223  and  _225
REMARK   90  A    between atoms: _225  and  _226
REMARK   91  A    between atoms: _225  and  _228
REMARK   92  A    between atoms: _228  and  _229
REMARK   93  A    between atoms: _229  and  _230
REMARK   94  A    between atoms: _230  and  _231
REMARK   95  A    between atoms: _231  and  _232
REMARK   96  A    between atoms: _236  and  _238
REMARK   97  A    between atoms: _238  and  _239
REMARK   98  A    between atoms: _238  and  _241
REMARK   99  A    between atoms: _241  and  _242
REMARK  100  A    between atoms: _247  and  _249
REMARK  101  A    between atoms: _249  and  _250
REMARK  102  A    between atoms: _249  and  _252
REMARK  103  A    between atoms: _252  and  _253
REMARK  104  A    between atoms: _255  and  _257
REMARK  105  A    between atoms: _257  and  _258
REMARK  106  A    between atoms: _257  and  _260
REMARK  107  A    between atoms: _260  and  _261
REMARK  108  A    between atoms: _263  and  _265
REMARK  109  A    between atoms: _265  and  _266
REMARK  110  A    between atoms: _265  and  _268
REMARK  111  A    between atoms: _268  and  _269
REMARK  112  A    between atoms: _275  and  _277
REMARK  113  A    between atoms: _277  and  _278
REMARK  114  A    between atoms: _277  and  _280
REMARK  115  A    between atoms: _280  and  _281
REMARK  116  A    between atoms: _281  and  _282
REMARK  117  A    between atoms: _287  and  _289
REMARK  118  A    between atoms: _289  and  _290
REMARK  119  A    between atoms: _289  and  _292
REMARK  120  A    between atoms: _292  and  _293
REMARK  121  A    between atoms: _296  and  _298
REMARK  122  A    between atoms: _298  and  _299
REMARK  123  A    between atoms: _298  and  _301
REMARK  124  A    between atoms: _301  and  _302
REMARK  125  A    between atoms: _307  and  _309
REMARK  126  A    between atoms: _309  and  _310
REMARK  127  A    between atoms: _309  and  _312
REMARK  128  A    between atoms: _312  and  _313
REMARK  129  A    between atoms: _313  and  _314
REMARK  130  A    between atoms: _316  and  _318
REMARK  131  A    between atoms: _318  and  _319
REMARK  132  A    between atoms: _318  and  _321
REMARK  133  A    between atoms: _321  and  _322
REMARK  134  A    between atoms: _325  and  _327
REMARK  135  A    between atoms: _327  and  _328
REMARK  136  A    between atoms: _327  and  _330
REMARK  137  A    between atoms: _330  and  _331
REMARK  138  A    between atoms: _331  and  _332
REMARK  139  A    between atoms: _332  and  _333
REMARK  140  A    between atoms: _342  and  _344
REMARK  141  A    between atoms: _344  and  _345
REMARK  142  A    between atoms: _344  and  _347
REMARK  143  A    between atoms: _347  and  _348
REMARK  144  A    between atoms: _353  and  _354
REMARK  145  A    between atoms: _356  and  _358
REMARK  146  A    between atoms: _358  and  _359
REMARK  147  A    between atoms: _358  and  _365
REMARK  148  A    between atoms: _359  and  _360
REMARK  149  A    between atoms: _360  and  _361
REMARK  150  A    between atoms: _361  and  _362
REMARK  151  A    between atoms: _362  and  _363
REMARK  152  A    between atoms: _370  and  _372
REMARK  153  A    between atoms: _372  and  _373
REMARK  154  A    between atoms: _372  and  _375
REMARK  155  A    between atoms: _375  and  _376
REMARK  156  A    between atoms: _378  and  _380
REMARK  157  A    between atoms: _380  and  _381
REMARK  158  A    between atoms: _380  and  _383
REMARK  159  A    between atoms: _383  and  _384
REMARK  160  A    between atoms: _384  and  _385
REMARK  161  A    between atoms: _385  and  _386
REMARK  162  A    between atoms: _386  and  _387
REMARK  163  A    between atoms: _391  and  _393
REMARK  164  A    between atoms: _393  and  _394
REMARK  165  A    between atoms: _397  and  _399
REMARK  166  A    between atoms: _399  and  _400
REMARK  167  A    between atoms: _399  and  _402
REMARK  168  A    between atoms: _402  and  _403
REMARK  169  A    between atoms: _406  and  _408
REMARK  170  A    between atoms: _408  and  _409
REMARK  171  A    between atoms: _408  and  _411
REMARK  172  A    between atoms: _411  and  _412
REMARK  173  A    between atoms: _417  and  _419
REMARK  174  A    between atoms: _419  and  _420
REMARK  175  A    between atoms: _419  and  _422
REMARK  176  A    between atoms: _422  and  _423
REMARK  177  A    between atoms: _426  and  _428
REMARK  178  A    between atoms: _428  and  _429
REMARK  179  A    between atoms: _431  and  _433
REMARK  180  A    between atoms: _433  and  _434
REMARK  181  A    between atoms: _433  and  _436
REMARK  182  A    between atoms: _436  and  _437
REMARK  183  A    between atoms: _437  and  _438
REMARK  184  A    between atoms: _438  and  _439
REMARK  185  A    between atoms: _439  and  _440
REMARK  186  A    between atoms: _444  and  _446
REMARK  187  A    between atoms: _446  and  _447
REMARK  188  A    between atoms: _450  and  _452
REMARK  189  A    between atoms: _452  and  _453
REMARK  190  A    between atoms: _452  and  _455
REMARK  191  A    between atoms: _457  and  _459
REMARK  192  A    between atoms: _459  and  _460
REMARK  193  A    between atoms: _463  and  _465
REMARK  194  A    between atoms: _465  and  _466
REMARK  195  A    between atoms: _465  and  _468
REMARK  196  A    between atoms: _468  and  _469
REMARK  197  A    between atoms: _471  and  _473
REMARK  198  A    between atoms: _473  and  _474
REMARK  199  A    between atoms: _473  and  _476
REMARK  200  A    between atoms: _476  and  _477
REMARK  201  A    between atoms: _480  and  _482
REMARK  202  A    between atoms: _482  and  _483
REMARK  203  A    between atoms: _482  and  _485
REMARK  204  A    between atoms: _485  and  _486
REMARK  205  A    between atoms: _489  and  _491
REMARK  206  A    between atoms: _491  and  _492
REMARK  207  A    between atoms: _491  and  _494
REMARK  208  A    between atoms: _494  and  _495
REMARK  209  A    between atoms: _495  and  _496
REMARK  210  A    between atoms: _501  and  _503
REMARK  211  A    between atoms: _503  and  _504
REMARK  212  A    between atoms: _503  and  _506
REMARK  213  A    between atoms: _506  and  _507
REMARK  214  A    between atoms: _513  and  _515
REMARK  215  A    between atoms: _515  and  _516
REMARK  216  A    between atoms: _515  and  _518
REMARK  217  A    between atoms: _518  and  _519
REMARK  218  A    between atoms: _519  and  _520
REMARK  219  A    between atoms: _520  and  _521
REMARK  220  A    between atoms: _521  and  _522
REMARK  221  A    between atoms: _526  and  _528
REMARK  222  A    between atoms: _528  and  _529
REMARK  223  A    between atoms: _528  and  _531
REMARK  224  A    between atoms: _531  and  _532
REMARK  225  A    between atoms: _537  and  _539
REMARK  226  A    between atoms: _539  and  _540
REMARK  227  A    between atoms: _539  and  _542
REMARK  228  A    between atoms: _542  and  _543
REMARK  229  A    between atoms: _549  and  _551
REMARK  230  A    between atoms: _551  and  _552
REMARK  231  A    between atoms: _551  and  _554
REMARK  232  A    between atoms: _554  and  _555
REMARK  233  A    between atoms: _555  and  _556
REMARK  234  A    between atoms: _559  and  _561
REMARK  235  A    between atoms: _561  and  _562
REMARK  236  A    between atoms: _561  and  _564
REMARK  237  A    between atoms: _564  and  _565
REMARK  238  A    between atoms: _565  and  _566
REMARK  239  A    between atoms: _571  and  _573
REMARK  240  A    between atoms: _573  and  _574
REMARK  241  A    between atoms: _573  and  _576
REMARK  242  A    between atoms: _576  and  _577
REMARK  243  A    between atoms: _577  and  _578
REMARK  244  A    between atoms: _578  and  _579
REMARK  245  A    between atoms: _588  and  _590
REMARK  246  A    between atoms: _590  and  _591
REMARK                            x       y       z     vdW  Elec       q    Type
REMARK                         _______ _______ _______ _____ _____    ______ ____
ROOT
ATOM      1  O   HOH     1       9.278  31.204  39.436  0.00  0.00    +0.000 OA
ENDROOT
TORSDOF 0
REMARK  Name = ../refined-set-2016/2xpc/2xpc_pocket.pdb
REMARK  246 active torsions:
REMARK  status: ('A' for Active; 'I' for Inactive)
REMARK    1  A    between atoms: _1  and  _3
REMARK    2  A    between atoms: _3  and  _4
REMARK    3  A    between atoms: _3  and  _6
REMARK    4  A    between atoms: _6  and  _7
REMARK    5  A    between atoms: _10  and  _12
REMARK    6  A    between atoms: _12  and  _13
REMARK    7  A    between atoms: _12  and  _15
REMARK    8  A    between atoms: _15  and  _16
REMARK    9  A    between atoms: _19  and  _21
REMARK   10  A    between atoms: _21  and  _22
REMARK   11  A    between atoms: _24  and  _26
REMARK   12  A    between atoms: _26  and  _27
REMARK   13  A    between atoms: _26  and  _29
REMARK   14  A    between atoms: _29  and  _30
REMARK   15  A    between atoms: _33  and  _35
REMARK   16  A    between atoms: _35  and  _36
REMARK   17  A    between atoms: _38  and  _40
REMARK   18  A    between atoms: _40  and  _41
REMARK   19  A    between atoms: _40  and  _43
REMARK   20  A    between atoms: _43  and  _44
REMARK   21  A    between atoms: _47  and  _49
REMARK   22  A    between atoms: _49  and  _50
REMARK   23  A    between atoms: _49  and  _52
REMARK   24  A    between atoms: _52  and  _53
REMARK   25  A    between atoms: _56  and  _58
REMARK   26  A    between atoms: _58  and  _59
REMARK   27  A    between atoms: _61  and  _63
REMARK   28  A    between atoms: _63  and  _64
REMARK   29  A    between atoms: _63  and  _66
REMARK   30  A    between atoms: _66  and  _67
REMARK   31  A    between atoms: _67  and  _68
REMARK   32  A    between atoms: _70  and  _72
REMARK   33  A    between atoms: _72  and  _73
REMARK   34  A    between atoms: _72  and  _75
REMARK   35  A    between atoms: _75  and  _76
REMARK   36  A    between atoms: _79  and  _81
REMARK   37  A    between atoms: _81  and  _82
REMARK   38  A    between atoms: _81  and  _84
REMARK   39  A    between atoms: _84  and  _85
REMARK   40  A    between atoms: _88  and  _90
REMARK   41  A    between atoms: _90  and  _91
REMARK   42  A    between atoms: _90  and  _93
REMARK   43  A    between atoms: _93  and  _94
REMARK   44  A    between atoms: _94  and  _95
REMARK   45  A    between atoms: _95  and  _96
REMARK   46  A    between atoms: _106  and  _107
REMARK   47  A    between atoms: _113  and  _114
REMARK   48  A    between atoms: _119  and  _121
REMARK   49  A    between atoms: _121  and  _122
REMARK   50  A    between atoms: _121  and  _124
REMARK   51  A    between atoms: _124  and  _125
REMARK   52  A    between atoms: _130  and  _132
REMARK   53  A    between atoms: _132  and  _133
REMARK   54  A    between atoms: _135  and  _137
REMARK   55  A    between atoms: _137  and  _138
REMARK   56  A    between atoms: _137  and  _140
REMARK   57  A    between atoms: _140  and  _141
REMARK   58  A    between atoms: _143  and  _145
REMARK   59  A    between atoms: _145  and  _146
REMARK   60  A    between atoms: _145  and  _148
REMARK   61  A    between atoms: _148  and  _149
REMARK   62  A    between atoms: _152  and  _154
REMARK   63  A    between atoms: _154  and  _155
REMARK   64  A    between atoms: _154  and  _157
REMARK   65  A    between atoms: _157  and  _158
REMARK   66  A    between atoms: _163  and  _165
REMARK   67  A    between atoms: _165  and  _166
REMARK   68  A    between atoms: _169  and  _171
REMARK   69  A    between atoms: _171  and  _172
REMARK   70  A    between atoms: _171  and  _174
REMARK   71  A    between atoms: _174  and  _175
REMARK   72  A    between atoms: _178  and  _179
REMARK   73  A    between atoms: _184  and  _186
REMARK   74  A    between atoms: _186  and  _187
REMARK   75  A    between atoms: _189  and  _191
REMARK   76  A    between atoms: _191  and  _192
REMARK   77  A    between atoms: _191  and  _194
REMARK   78  A    between atoms: _194  and  _195
REMARK   79  A    between atoms: _198  and  _200
REMARK   80  A    between atoms: _200  and  _201
REMARK   81  A    between atoms: _204  and  _206
REMARK   82  A    between atoms: _206  and  _207
REMARK   83  A    between atoms: _206  and  _209
REMARK   84  A    between atoms: _209  and  _210
REMARK   85  A    between atoms: _215  and  _217
REMARK   86  A    between atoms: _217  and  _218
REMARK   87  A    between atoms: _217  and  _220
REMARK   88  A    between atoms: _220  and  _221
REMARK   89  A    between atoms: _223  and  _225
REMARK   90  A    between atoms: _225  and  _226
REMARK   91  A    between atoms: _225  and  _228
REMARK   92  A    between atoms: _228  and  _229
REMARK   93  A    between atoms: _229  and  _230
REMARK   94  A    between atoms: _230  and  _231
REMARK   95  A    between atoms: _231  and  _232
REMARK   96  A    between atoms: _236  and  _238
REMARK   97  A    between atoms: _238  and  _239
REMARK   98  A    between atoms: _238  and  _241
REMARK   99  A    between atoms: _241  and  _242
REMARK  100  A    between atoms: _247  and  _249
REMARK  101  A    between atoms: _249  and  _250
REMARK  102  A    between atoms: _249  and  _252
REMARK  103  A    between atoms: _252  and  _253
REMARK  104  A    between atoms: _255  and  _257
REMARK  105  A    between atoms: _257  and  _258
REMARK  106  A    between atoms: _257  and  _260
REMARK  107  A    between atoms: _260  and  _261
REMARK  108  A    between atoms: _263  and  _265
REMARK  109  A    between atoms: _265  and  _266
REMARK  110  A    between atoms: _265  and  _268
REMARK  111  A    between atoms: _268  and  _269
REMARK  112  A    between atoms: _275  and  _277
REMARK  113  A    between atoms: _277  and  _278
REMARK  114  A    between atoms: _277  and  _280
REMARK  115  A    between atoms: _280  and  _281
REMARK  116  A    between atoms: _281  and  _282
REMARK  117  A    between atoms: _287  and  _289
REMARK  118  A    between atoms: _289  and  _290
REMARK  119  A    between atoms: _289  and  _292
REMARK  120  A    between atoms: _292  and  _293
REMARK  121  A    between atoms: _296  and  _298
REMARK  122  A    between atoms: _298  and  _299
REMARK  123  A    between atoms: _298  and  _301
REMARK  124  A    between atoms: _301  and  _302
REMARK  125  A    between atoms: _307  and  _309
REMARK  126  A    between atoms: _309  and  _310
REMARK  127  A    between atoms: _309  and  _312
REMARK  128  A    between atoms: _312  and  _313
REMARK  129  A    between atoms: _313  and  _314
REMARK  130  A    between atoms: _316  and  _318
REMARK  131  A    between atoms: _318  and  _319
REMARK  132  A    between atoms: _318  and  _321
REMARK  133  A    between atoms: _321  and  _322
REMARK  134  A    between atoms: _325  and  _327
REMARK  135  A    between atoms: _327  and  _328
REMARK  136  A    between atoms: _327  and  _330
REMARK  137  A    between atoms: _330  and  _331
REMARK  138  A    between atoms: _331  and  _332
REMARK  139  A    between atoms: _332  and  _333
REMARK  140  A    between atoms: _342  and  _344
REMARK  141  A    between atoms: _344  and  _345
REMARK  142  A    between atoms: _344  and  _347
REMARK  143  A    between atoms: _347  and  _348
REMARK  144  A    between atoms: _353  and  _354
REMARK  145  A    between atoms: _356  and  _358
REMARK  146  A    between atoms: _358  and  _359
REMARK  147  A    between atoms: _358  and  _365
REMARK  148  A    between atoms: _359  and  _360
REMARK  149  A    between atoms: _360  and  _361
REMARK  150  A    between atoms: _361  and  _362
REMARK  151  A    between atoms: _362  and  _363
REMARK  152  A    between atoms: _370  and  _372
REMARK  153  A    between atoms: _372  and  _373
REMARK  154  A    between atoms: _372  and  _375
REMARK  155  A    between atoms: _375  and  _376
REMARK  156  A    between atoms: _378  and  _380
REMARK  157  A    between atoms: _380  and  _381
REMARK  158  A    between atoms: _380  and  _383
REMARK  159  A    between atoms: _383  and  _384
REMARK  160  A    between atoms: _384  and  _385
REMARK  161  A    between atoms: _385  and  _386
REMARK  162  A    between atoms: _386  and  _387
REMARK  163  A    between atoms: _391  and  _393
REMARK  164  A    between atoms: _393  and  _394
REMARK  165  A    between atoms: _397  and  _399
REMARK  166  A    between atoms: _399  and  _400
REMARK  167  A    between atoms: _399  and  _402
REMARK  168  A    between atoms: _402  and  _403
REMARK  169  A    between atoms: _406  and  _408
REMARK  170  A    between atoms: _408  and  _409
REMARK  171  A    between atoms: _408  and  _411
REMARK  172  A    between atoms: _411  and  _412
REMARK  173  A    between atoms: _417  and  _419
REMARK  174  A    between atoms: _419  and  _420
REMARK  175  A    between atoms: _419  and  _422
REMARK  176  A    between atoms: _422  and  _423
REMARK  177  A    between atoms: _426  and  _428
REMARK  178  A    between atoms: _428  and  _429
REMARK  179  A    between atoms: _431  and  _433
REMARK  180  A    between atoms: _433  and  _434
REMARK  181  A    between atoms: _433  and  _436
REMARK  182  A    between atoms: _436  and  _437
REMARK  183  A    between atoms: _437  and  _438
REMARK  184  A    between atoms: _438  and  _439
REMARK  185  A    between atoms: _439  and  _440
REMARK  186  A    between atoms: _444  and  _446
REMARK  187  A    between atoms: _446  and  _447
REMARK  188  A    between atoms: _450  and  _452
REMARK  189  A    between atoms: _452  and  _453
REMARK  190  A    between atoms: _452  and  _455
REMARK  191  A    between atoms: _457  and  _459
REMARK  192  A    between atoms: _459  and  _460
REMARK  193  A    between atoms: _463  and  _465
REMARK  194  A    between atoms: _465  and  _466
REMARK  195  A    between atoms: _465  and  _468
REMARK  196  A    between atoms: _468  and  _469
REMARK  197  A    between atoms: _471  and  _473
REMARK  198  A    between atoms: _473  and  _474
REMARK  199  A    between atoms: _473  and  _476
REMARK  200  A    between atoms: _476  and  _477
REMARK  201  A    between atoms: _480  and  _482
REMARK  202  A    between atoms: _482  and  _483
REMARK  203  A    between atoms: _482  and  _485
REMARK  204  A    between atoms: _485  and  _486
REMARK  205  A    between atoms: _489  and  _491
REMARK  206  A    between atoms: _491  and  _492
REMARK  207  A    between atoms: _491  and  _494
REMARK  208  A    between atoms: _494  and  _495
REMARK  209  A    between atoms: _495  and  _496
REMARK  210  A    between atoms: _501  and  _503
REMARK  211  A    between atoms: _503  and  _504
REMARK  212  A    between atoms: _503  and  _506
REMARK  213  A    between atoms: _506  and  _507
REMARK  214  A    between atoms: _513  and  _515
REMARK  215  A    between atoms: _515  and  _516
REMARK  216  A    between atoms: _515  and  _518
REMARK  217  A    between atoms: _518  and  _519
REMARK  218  A    between atoms: _519  and  _520
REMARK  219  A    between atoms: _520  and  _521
REMARK  220  A    between atoms: _521  and  _522
REMARK  221  A    between atoms: _526  and  _528
REMARK  222  A    between atoms: _528  and  _529
REMARK  223  A    between atoms: _528  and  _531
REMARK  224  A    between atoms: _531  and  _532
REMARK  225  A    between atoms: _537  and  _539
REMARK  226  A    between atoms: _539  and  _540
REMARK  227  A    between atoms: _539  and  _542
REMARK  228  A    between atoms: _542  and  _543
REMARK  229  A    between atoms: _549  and  _551
REMARK  230  A    between atoms: _551  and  _552
REMARK  231  A    between atoms: _551  and  _554
REMARK  232  A    between atoms: _554  and  _555
REMARK  233  A    between atoms: _555  and  _556
REMARK  234  A    between atoms: _559  and  _561
REMARK  235  A    between atoms: _561  and  _562
REMARK  236  A    between atoms: _561  and  _564
REMARK  237  A    between atoms: _564  and  _565
REMARK  238  A    between atoms: _565  and  _566
REMARK  239  A    between atoms: _571  and  _573
REMARK  240  A    between atoms: _573  and  _574
REMARK  241  A    between atoms: _573  and  _576
REMARK  242  A    between atoms: _576  and  _577
REMARK  243  A    between atoms: _577  and  _578
REMARK  244  A    between atoms: _578  and  _579
REMARK  245  A    between atoms: _588  and  _590
REMARK  246  A    between atoms: _590  and  _591
REMARK                            x       y       z     vdW  Elec       q    Type
REMARK                         _______ _______ _______ _____ _____    ______ ____
ROOT
ATOM      1  O   HOH     1       3.810  22.860  43.219  0.00  0.00    +0.000 OA
ENDROOT
TORSDOF 0
REMARK  Name = ../refined-set-2016/2xpc/2xpc_pocket.pdb
REMARK  246 active torsions:
REMARK  status: ('A' for Active; 'I' for Inactive)
REMARK    1  A    between atoms: _1  and  _3
REMARK    2  A    between atoms: _3  and  _4
REMARK    3  A    between atoms: _3  and  _6
REMARK    4  A    between atoms: _6  and  _7
REMARK    5  A    between atoms: _10  and  _12
REMARK    6  A    between atoms: _12  and  _13
REMARK    7  A    between atoms: _12  and  _15
REMARK    8  A    between atoms: _15  and  _16
REMARK    9  A    between atoms: _19  and  _21
REMARK   10  A    between atoms: _21  and  _22
REMARK   11  A    between atoms: _24  and  _26
REMARK   12  A    between atoms: _26  and  _27
REMARK   13  A    between atoms: _26  and  _29
REMARK   14  A    between atoms: _29  and  _30
REMARK   15  A    between atoms: _33  and  _35
REMARK   16  A    between atoms: _35  and  _36
REMARK   17  A    between atoms: _38  and  _40
REMARK   18  A    between atoms: _40  and  _41
REMARK   19  A    between atoms: _40  and  _43
REMARK   20  A    between atoms: _43  and  _44
REMARK   21  A    between atoms: _47  and  _49
REMARK   22  A    between atoms: _49  and  _50
REMARK   23  A    between atoms: _49  and  _52
REMARK   24  A    between atoms: _52  and  _53
REMARK   25  A    between atoms: _56  and  _58
REMARK   26  A    between atoms: _58  and  _59
REMARK   27  A    between atoms: _61  and  _63
REMARK   28  A    between atoms: _63  and  _64
REMARK   29  A    between atoms: _63  and  _66
REMARK   30  A    between atoms: _66  and  _67
REMARK   31  A    between atoms: _67  and  _68
REMARK   32  A    between atoms: _70  and  _72
REMARK   33  A    between atoms: _72  and  _73
REMARK   34  A    between atoms: _72  and  _75
REMARK   35  A    between atoms: _75  and  _76
REMARK   36  A    between atoms: _79  and  _81
REMARK   37  A    between atoms: _81  and  _82
REMARK   38  A    between atoms: _81  and  _84
REMARK   39  A    between atoms: _84  and  _85
REMARK   40  A    between atoms: _88  and  _90
REMARK   41  A    between atoms: _90  and  _91
REMARK   42  A    between atoms: _90  and  _93
REMARK   43  A    between atoms: _93  and  _94
REMARK   44  A    between atoms: _94  and  _95
REMARK   45  A    between atoms: _95  and  _96
REMARK   46  A    between atoms: _106  and  _107
REMARK   47  A    between atoms: _113  and  _114
REMARK   48  A    between atoms: _119  and  _121
REMARK   49  A    between atoms: _121  and  _122
REMARK   50  A    between atoms: _121  and  _124
REMARK   51  A    between atoms: _124  and  _125
REMARK   52  A    between atoms: _130  and  _132
REMARK   53  A    between atoms: _132  and  _133
REMARK   54  A    between atoms: _135  and  _137
REMARK   55  A    between atoms: _137  and  _138
REMARK   56  A    between atoms: _137  and  _140
REMARK   57  A    between atoms: _140  and  _141
REMARK   58  A    between atoms: _143  and  _145
REMARK   59  A    between atoms: _145  and  _146
REMARK   60  A    between atoms: _145  and  _148
REMARK   61  A    between atoms: _148  and  _149
REMARK   62  A    between atoms: _152  and  _154
REMARK   63  A    between atoms: _154  and  _155
REMARK   64  A    between atoms: _154  and  _157
REMARK   65  A    between atoms: _157  and  _158
REMARK   66  A    between atoms: _163  and  _165
REMARK   67  A    between atoms: _165  and  _166
REMARK   68  A    between atoms: _169  and  _171
REMARK   69  A    between atoms: _171  and  _172
REMARK   70  A    between atoms: _171  and  _174
REMARK   71  A    between atoms: _174  and  _175
REMARK   72  A    between atoms: _178  and  _179
REMARK   73  A    between atoms: _184  and  _186
REMARK   74  A    between atoms: _186  and  _187
REMARK   75  A    between atoms: _189  and  _191
REMARK   76  A    between atoms: _191  and  _192
REMARK   77  A    between atoms: _191  and  _194
REMARK   78  A    between atoms: _194  and  _195
REMARK   79  A    between atoms: _198  and  _200
REMARK   80  A    between atoms: _200  and  _201
REMARK   81  A    between atoms: _204  and  _206
REMARK   82  A    between atoms: _206  and  _207
REMARK   83  A    between atoms: _206  and  _209
REMARK   84  A    between atoms: _209  and  _210
REMARK   85  A    between atoms: _215  and  _217
REMARK   86  A    between atoms: _217  and  _218
REMARK   87  A    between atoms: _217  and  _220
REMARK   88  A    between atoms: _220  and  _221
REMARK   89  A    between atoms: _223  and  _225
REMARK   90  A    between atoms: _225  and  _226
REMARK   91  A    between atoms: _225  and  _228
REMARK   92  A    between atoms: _228  and  _229
REMARK   93  A    between atoms: _229  and  _230
REMARK   94  A    between atoms: _230  and  _231
REMARK   95  A    between atoms: _231  and  _232
REMARK   96  A    between atoms: _236  and  _238
REMARK   97  A    between atoms: _238  and  _239
REMARK   98  A    between atoms: _238  and  _241
REMARK   99  A    between atoms: _241  and  _242
REMARK  100  A    between atoms: _247  and  _249
REMARK  101  A    between atoms: _249  and  _250
REMARK  102  A    between atoms: _249  and  _252
REMARK  103  A    between atoms: _252  and  _253
REMARK  104  A    between atoms: _255  and  _257
REMARK  105  A    between atoms: _257  and  _258
REMARK  106  A    between atoms: _257  and  _260
REMARK  107  A    between atoms: _260  and  _261
REMARK  108  A    between atoms: _263  and  _265
REMARK  109  A    between atoms: _265  and  _266
REMARK  110  A    between atoms: _265  and  _268
REMARK  111  A    between atoms: _268  and  _269
REMARK  112  A    between atoms: _275  and  _277
REMARK  113  A    between atoms: _277  and  _278
REMARK  114  A    between atoms: _277  and  _280
REMARK  115  A    between atoms: _280  and  _281
REMARK  116  A    between atoms: _281  and  _282
REMARK  117  A    between atoms: _287  and  _289
REMARK  118  A    between atoms: _289  and  _290
REMARK  119  A    between atoms: _289  and  _292
REMARK  120  A    between atoms: _292  and  _293
REMARK  121  A    between atoms: _296  and  _298
REMARK  122  A    between atoms: _298  and  _299
REMARK  123  A    between atoms: _298  and  _301
REMARK  124  A    between atoms: _301  and  _302
REMARK  125  A    between atoms: _307  and  _309
REMARK  126  A    between atoms: _309  and  _310
REMARK  127  A    between atoms: _309  and  _312
REMARK  128  A    between atoms: _312  and  _313
REMARK  129  A    between atoms: _313  and  _314
REMARK  130  A    between atoms: _316  and  _318
REMARK  131  A    between atoms: _318  and  _319
REMARK  132  A    between atoms: _318  and  _321
REMARK  133  A    between atoms: _321  and  _322
REMARK  134  A    between atoms: _325  and  _327
REMARK  135  A    between atoms: _327  and  _328
REMARK  136  A    between atoms: _327  and  _330
REMARK  137  A    between atoms: _330  and  _331
REMARK  138  A    between atoms: _331  and  _332
REMARK  139  A    between atoms: _332  and  _333
REMARK  140  A    between atoms: _342  and  _344
REMARK  141  A    between atoms: _344  and  _345
REMARK  142  A    between atoms: _344  and  _347
REMARK  143  A    between atoms: _347  and  _348
REMARK  144  A    between atoms: _353  and  _354
REMARK  145  A    between atoms: _356  and  _358
REMARK  146  A    between atoms: _358  and  _359
REMARK  147  A    between atoms: _358  and  _365
REMARK  148  A    between atoms: _359  and  _360
REMARK  149  A    between atoms: _360  and  _361
REMARK  150  A    between atoms: _361  and  _362
REMARK  151  A    between atoms: _362  and  _363
REMARK  152  A    between atoms: _370  and  _372
REMARK  153  A    between atoms: _372  and  _373
REMARK  154  A    between atoms: _372  and  _375
REMARK  155  A    between atoms: _375  and  _376
REMARK  156  A    between atoms: _378  and  _380
REMARK  157  A    between atoms: _380  and  _381
REMARK  158  A    between atoms: _380  and  _383
REMARK  159  A    between atoms: _383  and  _384
REMARK  160  A    between atoms: _384  and  _385
REMARK  161  A    between atoms: _385  and  _386
REMARK  162  A    between atoms: _386  and  _387
REMARK  163  A    between atoms: _391  and  _393
REMARK  164  A    between atoms: _393  and  _394
REMARK  165  A    between atoms: _397  and  _399
REMARK  166  A    between atoms: _399  and  _400
REMARK  167  A    between atoms: _399  and  _402
REMARK  168  A    between atoms: _402  and  _403
REMARK  169  A    between atoms: _406  and  _408
REMARK  170  A    between atoms: _408  and  _409
REMARK  171  A    between atoms: _408  and  _411
REMARK  172  A    between atoms: _411  and  _412
REMARK  173  A    between atoms: _417  and  _419
REMARK  174  A    between atoms: _419  and  _420
REMARK  175  A    between atoms: _419  and  _422
REMARK  176  A    between atoms: _422  and  _423
REMARK  177  A    between atoms: _426  and  _428
REMARK  178  A    between atoms: _428  and  _429
REMARK  179  A    between atoms: _431  and  _433
REMARK  180  A    between atoms: _433  and  _434
REMARK  181  A    between atoms: _433  and  _436
REMARK  182  A    between atoms: _436  and  _437
REMARK  183  A    between atoms: _437  and  _438
REMARK  184  A    between atoms: _438  and  _439
REMARK  185  A    between atoms: _439  and  _440
REMARK  186  A    between atoms: _444  and  _446
REMARK  187  A    between atoms: _446  and  _447
REMARK  188  A    between atoms: _450  and  _452
REMARK  189  A    between atoms: _452  and  _453
REMARK  190  A    between atoms: _452  and  _455
REMARK  191  A    between atoms: _457  and  _459
REMARK  192  A    between atoms: _459  and  _460
REMARK  193  A    between atoms: _463  and  _465
REMARK  194  A    between atoms: _465  and  _466
REMARK  195  A    between atoms: _465  and  _468
REMARK  196  A    between atoms: _468  and  _469
REMARK  197  A    between atoms: _471  and  _473
REMARK  198  A    between atoms: _473  and  _474
REMARK  199  A    between atoms: _473  and  _476
REMARK  200  A    between atoms: _476  and  _477
REMARK  201  A    between atoms: _480  and  _482
REMARK  202  A    between atoms: _482  and  _483
REMARK  203  A    between atoms: _482  and  _485
REMARK  204  A    between atoms: _485  and  _486
REMARK  205  A    between atoms: _489  and  _491
REMARK  206  A    between atoms: _491  and  _492
REMARK  207  A    between atoms: _491  and  _494
REMARK  208  A    between atoms: _494  and  _495
REMARK  209  A    between atoms: _495  and  _496
REMARK  210  A    between atoms: _501  and  _503
REMARK  211  A    between atoms: _503  and  _504
REMARK  212  A    between atoms: _503  and  _506
REMARK  213  A    between atoms: _506  and  _507
REMARK  214  A    between atoms: _513  and  _515
REMARK  215  A    between atoms: _515  and  _516
REMARK  216  A    between atoms: _515  and  _518
REMARK  217  A    between atoms: _518  and  _519
REMARK  218  A    between atoms: _519  and  _520
REMARK  219  A    between atoms: _520  and  _521
REMARK  220  A    between atoms: _521  and  _522
REMARK  221  A    between atoms: _526  and  _528
REMARK  222  A    between atoms: _528  and  _529
REMARK  223  A    between atoms: _528  and  _531
REMARK  224  A    between atoms: _531  and  _532
REMARK  225  A    between atoms: _537  and  _539
REMARK  226  A    between atoms: _539  and  _540
REMARK  227  A    between atoms: _539  and  _542
REMARK  228  A    between atoms: _542  and  _543
REMARK  229  A    between atoms: _549  and  _551
REMARK  230  A    between atoms: _551  and  _552
REMARK  231  A    between atoms: _551  and  _554
REMARK  232  A    between atoms: _554  and  _555
REMARK  233  A    between atoms: _555  and  _556
REMARK  234  A    between atoms: _559  and  _561
REMARK  235  A    between atoms: _561  and  _562
REMARK  236  A    between atoms: _561  and  _564
REMARK  237  A    between atoms: _564  and  _565
REMARK  238  A    between atoms: _565  and  _566
REMARK  239  A    between atoms: _571  and  _573
REMARK  240  A    between atoms: _573  and  _574
REMARK  241  A    between atoms: _573  and  _576
REMARK  242  A    between atoms: _576  and  _577
REMARK  243  A    between atoms: _577  and  _578
REMARK  244  A    between atoms: _578  and  _579
REMARK  245  A    between atoms: _588  and  _590
REMARK  246  A    between atoms: _590  and  _591
REMARK                            x       y       z     vdW  Elec       q    Type
REMARK                         _______ _______ _______ _____ _____    ______ ____
ROOT
ATOM      1  O   HOH     1       8.818  37.439  44.029  0.00  0.00    +0.000 OA
ENDROOT
TORSDOF 0
REMARK  Name = ../refined-set-2016/2xpc/2xpc_pocket.pdb
REMARK  246 active torsions:
REMARK  status: ('A' for Active; 'I' for Inactive)
REMARK    1  A    between atoms: _1  and  _3
REMARK    2  A    between atoms: _3  and  _4
REMARK    3  A    between atoms: _3  and  _6
REMARK    4  A    between atoms: _6  and  _7
REMARK    5  A    between atoms: _10  and  _12
REMARK    6  A    between atoms: _12  and  _13
REMARK    7  A    between atoms: _12  and  _15
REMARK    8  A    between atoms: _15  and  _16
REMARK    9  A    between atoms: _19  and  _21
REMARK   10  A    between atoms: _21  and  _22
REMARK   11  A    between atoms: _24  and  _26
REMARK   12  A    between atoms: _26  and  _27
REMARK   13  A    between atoms: _26  and  _29
REMARK   14  A    between atoms: _29  and  _30
REMARK   15  A    between atoms: _33  and  _35
REMARK   16  A    between atoms: _35  and  _36
REMARK   17  A    between atoms: _38  and  _40
REMARK   18  A    between atoms: _40  and  _41
REMARK   19  A    between atoms: _40  and  _43
REMARK   20  A    between atoms: _43  and  _44
REMARK   21  A    between atoms: _47  and  _49
REMARK   22  A    between atoms: _49  and  _50
REMARK   23  A    between atoms: _49  and  _52
REMARK   24  A    between atoms: _52  and  _53
REMARK   25  A    between atoms: _56  and  _58
REMARK   26  A    between atoms: _58  and  _59
REMARK   27  A    between atoms: _61  and  _63
REMARK   28  A    between atoms: _63  and  _64
REMARK   29  A    between atoms: _63  and  _66
REMARK   30  A    between atoms: _66  and  _67
REMARK   31  A    between atoms: _67  and  _68
REMARK   32  A    between atoms: _70  and  _72
REMARK   33  A    between atoms: _72  and  _73
REMARK   34  A    between atoms: _72  and  _75
REMARK   35  A    between atoms: _75  and  _76
REMARK   36  A    between atoms: _79  and  _81
REMARK   37  A    between atoms: _81  and  _82
REMARK   38  A    between atoms: _81  and  _84
REMARK   39  A    between atoms: _84  and  _85
REMARK   40  A    between atoms: _88  and  _90
REMARK   41  A    between atoms: _90  and  _91
REMARK   42  A    between atoms: _90  and  _93
REMARK   43  A    between atoms: _93  and  _94
REMARK   44  A    between atoms: _94  and  _95
REMARK   45  A    between atoms: _95  and  _96
REMARK   46  A    between atoms: _106  and  _107
REMARK   47  A    between atoms: _113  and  _114
REMARK   48  A    between atoms: _119  and  _121
REMARK   49  A    between atoms: _121  and  _122
REMARK   50  A    between atoms: _121  and  _124
REMARK   51  A    between atoms: _124  and  _125
REMARK   52  A    between atoms: _130  and  _132
REMARK   53  A    between atoms: _132  and  _133
REMARK   54  A    between atoms: _135  and  _137
REMARK   55  A    between atoms: _137  and  _138
REMARK   56  A    between atoms: _137  and  _140
REMARK   57  A    between atoms: _140  and  _141
REMARK   58  A    between atoms: _143  and  _145
REMARK   59  A    between atoms: _145  and  _146
REMARK   60  A    between atoms: _145  and  _148
REMARK   61  A    between atoms: _148  and  _149
REMARK   62  A    between atoms: _152  and  _154
REMARK   63  A    between atoms: _154  and  _155
REMARK   64  A    between atoms: _154  and  _157
REMARK   65  A    between atoms: _157  and  _158
REMARK   66  A    between atoms: _163  and  _165
REMARK   67  A    between atoms: _165  and  _166
REMARK   68  A    between atoms: _169  and  _171
REMARK   69  A    between atoms: _171  and  _172
REMARK   70  A    between atoms: _171  and  _174
REMARK   71  A    between atoms: _174  and  _175
REMARK   72  A    between atoms: _178  and  _179
REMARK   73  A    between atoms: _184  and  _186
REMARK   74  A    between atoms: _186  and  _187
REMARK   75  A    between atoms: _189  and  _191
REMARK   76  A    between atoms: _191  and  _192
REMARK   77  A    between atoms: _191  and  _194
REMARK   78  A    between atoms: _194  and  _195
REMARK   79  A    between atoms: _198  and  _200
REMARK   80  A    between atoms: _200  and  _201
REMARK   81  A    between atoms: _204  and  _206
REMARK   82  A    between atoms: _206  and  _207
REMARK   83  A    between atoms: _206  and  _209
REMARK   84  A    between atoms: _209  and  _210
REMARK   85  A    between atoms: _215  and  _217
REMARK   86  A    between atoms: _217  and  _218
REMARK   87  A    between atoms: _217  and  _220
REMARK   88  A    between atoms: _220  and  _221
REMARK   89  A    between atoms: _223  and  _225
REMARK   90  A    between atoms: _225  and  _226
REMARK   91  A    between atoms: _225  and  _228
REMARK   92  A    between atoms: _228  and  _229
REMARK   93  A    between atoms: _229  and  _230
REMARK   94  A    between atoms: _230  and  _231
REMARK   95  A    between atoms: _231  and  _232
REMARK   96  A    between atoms: _236  and  _238
REMARK   97  A    between atoms: _238  and  _239
REMARK   98  A    between atoms: _238  and  _241
REMARK   99  A    between atoms: _241  and  _242
REMARK  100  A    between atoms: _247  and  _249
REMARK  101  A    between atoms: _249  and  _250
REMARK  102  A    between atoms: _249  and  _252
REMARK  103  A    between atoms: _252  and  _253
REMARK  104  A    between atoms: _255  and  _257
REMARK  105  A    between atoms: _257  and  _258
REMARK  106  A    between atoms: _257  and  _260
REMARK  107  A    between atoms: _260  and  _261
REMARK  108  A    between atoms: _263  and  _265
REMARK  109  A    between atoms: _265  and  _266
REMARK  110  A    between atoms: _265  and  _268
REMARK  111  A    between atoms: _268  and  _269
REMARK  112  A    between atoms: _275  and  _277
REMARK  113  A    between atoms: _277  and  _278
REMARK  114  A    between atoms: _277  and  _280
REMARK  115  A    between atoms: _280  and  _281
REMARK  116  A    between atoms: _281  and  _282
REMARK  117  A    between atoms: _287  and  _289
REMARK  118  A    between atoms: _289  and  _290
REMARK  119  A    between atoms: _289  and  _292
REMARK  120  A    between atoms: _292  and  _293
REMARK  121  A    between atoms: _296  and  _298
REMARK  122  A    between atoms: _298  and  _299
REMARK  123  A    between atoms: _298  and  _301
REMARK  124  A    between atoms: _301  and  _302
REMARK  125  A    between atoms: _307  and  _309
REMARK  126  A    between atoms: _309  and  _310
REMARK  127  A    between atoms: _309  and  _312
REMARK  128  A    between atoms: _312  and  _313
REMARK  129  A    between atoms: _313  and  _314
REMARK  130  A    between atoms: _316  and  _318
REMARK  131  A    between atoms: _318  and  _319
REMARK  132  A    between atoms: _318  and  _321
REMARK  133  A    between atoms: _321  and  _322
REMARK  134  A    between atoms: _325  and  _327
REMARK  135  A    between atoms: _327  and  _328
REMARK  136  A    between atoms: _327  and  _330
REMARK  137  A    between atoms: _330  and  _331
REMARK  138  A    between atoms: _331  and  _332
REMARK  139  A    between atoms: _332  and  _333
REMARK  140  A    between atoms: _342  and  _344
REMARK  141  A    between atoms: _344  and  _345
REMARK  142  A    between atoms: _344  and  _347
REMARK  143  A    between atoms: _347  and  _348
REMARK  144  A    between atoms: _353  and  _354
REMARK  145  A    between atoms: _356  and  _358
REMARK  146  A    between atoms: _358  and  _359
REMARK  147  A    between atoms: _358  and  _365
REMARK  148  A    between atoms: _359  and  _360
REMARK  149  A    between atoms: _360  and  _361
REMARK  150  A    between atoms: _361  and  _362
REMARK  151  A    between atoms: _362  and  _363
REMARK  152  A    between atoms: _370  and  _372
REMARK  153  A    between atoms: _372  and  _373
REMARK  154  A    between atoms: _372  and  _375
REMARK  155  A    between atoms: _375  and  _376
REMARK  156  A    between atoms: _378  and  _380
REMARK  157  A    between atoms: _380  and  _381
REMARK  158  A    between atoms: _380  and  _383
REMARK  159  A    between atoms: _383  and  _384
REMARK  160  A    between atoms: _384  and  _385
REMARK  161  A    between atoms: _385  and  _386
REMARK  162  A    between atoms: _386  and  _387
REMARK  163  A    between atoms: _391  and  _393
REMARK  164  A    between atoms: _393  and  _394
REMARK  165  A    between atoms: _397  and  _399
REMARK  166  A    between atoms: _399  and  _400
REMARK  167  A    between atoms: _399  and  _402
REMARK  168  A    between atoms: _402  and  _403
REMARK  169  A    between atoms: _406  and  _408
REMARK  170  A    between atoms: _408  and  _409
REMARK  171  A    between atoms: _408  and  _411
REMARK  172  A    between atoms: _411  and  _412
REMARK  173  A    between atoms: _417  and  _419
REMARK  174  A    between atoms: _419  and  _420
REMARK  175  A    between atoms: _419  and  _422
REMARK  176  A    between atoms: _422  and  _423
REMARK  177  A    between atoms: _426  and  _428
REMARK  178  A    between atoms: _428  and  _429
REMARK  179  A    between atoms: _431  and  _433
REMARK  180  A    between atoms: _433  and  _434
REMARK  181  A    between atoms: _433  and  _436
REMARK  182  A    between atoms: _436  and  _437
REMARK  183  A    between atoms: _437  and  _438
REMARK  184  A    between atoms: _438  and  _439
REMARK  185  A    between atoms: _439  and  _440
REMARK  186  A    between atoms: _444  and  _446
REMARK  187  A    between atoms: _446  and  _447
REMARK  188  A    between atoms: _450  and  _452
REMARK  189  A    between atoms: _452  and  _453
REMARK  190  A    between atoms: _452  and  _455
REMARK  191  A    between atoms: _457  and  _459
REMARK  192  A    between atoms: _459  and  _460
REMARK  193  A    between atoms: _463  and  _465
REMARK  194  A    between atoms: _465  and  _466
REMARK  195  A    between atoms: _465  and  _468
REMARK  196  A    between atoms: _468  and  _469
REMARK  197  A    between atoms: _471  and  _473
REMARK  198  A    between atoms: _473  and  _474
REMARK  199  A    between atoms: _473  and  _476
REMARK  200  A    between atoms: _476  and  _477
REMARK  201  A    between atoms: _480  and  _482
REMARK  202  A    between atoms: _482  and  _483
REMARK  203  A    between atoms: _482  and  _485
REMARK  204  A    between atoms: _485  and  _486
REMARK  205  A    between atoms: _489  and  _491
REMARK  206  A    between atoms: _491  and  _492
REMARK  207  A    between atoms: _491  and  _494
REMARK  208  A    between atoms: _494  and  _495
REMARK  209  A    between atoms: _495  and  _496
REMARK  210  A    between atoms: _501  and  _503
REMARK  211  A    between atoms: _503  and  _504
REMARK  212  A    between atoms: _503  and  _506
REMARK  213  A    between atoms: _506  and  _507
REMARK  214  A    between atoms: _513  and  _515
REMARK  215  A    between atoms: _515  and  _516
REMARK  216  A    between atoms: _515  and  _518
REMARK  217  A    between atoms: _518  and  _519
REMARK  218  A    between atoms: _519  and  _520
REMARK  219  A    between atoms: _520  and  _521
REMARK  220  A    between atoms: _521  and  _522
REMARK  221  A    between atoms: _526  and  _528
REMARK  222  A    between atoms: _528  and  _529
REMARK  223  A    between atoms: _528  and  _531
REMARK  224  A    between atoms: _531  and  _532
REMARK  225  A    between atoms: _537  and  _539
REMARK  226  A    between atoms: _539  and  _540
REMARK  227  A    between atoms: _539  and  _542
REMARK  228  A    between atoms: _542  and  _543
REMARK  229  A    between atoms: _549  and  _551
REMARK  230  A    between atoms: _551  and  _552
REMARK  231  A    between atoms: _551  and  _554
REMARK  232  A    between atoms: _554  and  _555
REMARK  233  A    between atoms: _555  and  _556
REMARK  234  A    between atoms: _559  and  _561
REMARK  235  A    between atoms: _561  and  _562
REMARK  236  A    between atoms: _561  and  _564
REMARK  237  A    between atoms: _564  and  _565
REMARK  238  A    between atoms: _565  and  _566
REMARK  239  A    between atoms: _571  and  _573
REMARK  240  A    between atoms: _573  and  _574
REMARK  241  A    between atoms: _573  and  _576
REMARK  242  A    between atoms: _576  and  _577
REMARK  243  A    between atoms: _577  and  _578
REMARK  244  A    between atoms: _578  and  _579
REMARK  245  A    between atoms: _588  and  _590
REMARK  246  A    between atoms: _590  and  _591
REMARK                            x       y       z     vdW  Elec       q    Type
REMARK                         _______ _______ _______ _____ _____    ______ ____
ROOT
ATOM      1  O   HOH     1       9.296  38.061  46.495  0.00  0.00    +0.000 OA
ENDROOT
TORSDOF 0
REMARK  Name = ../refined-set-2016/2xpc/2xpc_pocket.pdb
REMARK  246 active torsions:
REMARK  status: ('A' for Active; 'I' for Inactive)
REMARK    1  A    between atoms: _1  and  _3
REMARK    2  A    between atoms: _3  and  _4
REMARK    3  A    between atoms: _3  and  _6
REMARK    4  A    between atoms: _6  and  _7
REMARK    5  A    between atoms: _10  and  _12
REMARK    6  A    between atoms: _12  and  _13
REMARK    7  A    between atoms: _12  and  _15
REMARK    8  A    between atoms: _15  and  _16
REMARK    9  A    between atoms: _19  and  _21
REMARK   10  A    between atoms: _21  and  _22
REMARK   11  A    between atoms: _24  and  _26
REMARK   12  A    between atoms: _26  and  _27
REMARK   13  A    between atoms: _26  and  _29
REMARK   14  A    between atoms: _29  and  _30
REMARK   15  A    between atoms: _33  and  _35
REMARK   16  A    between atoms: _35  and  _36
REMARK   17  A    between atoms: _38  and  _40
REMARK   18  A    between atoms: _40  and  _41
REMARK   19  A    between atoms: _40  and  _43
REMARK   20  A    between atoms: _43  and  _44
REMARK   21  A    between atoms: _47  and  _49
REMARK   22  A    between atoms: _49  and  _50
REMARK   23  A    between atoms: _49  and  _52
REMARK   24  A    between atoms: _52  and  _53
REMARK   25  A    between atoms: _56  and  _58
REMARK   26  A    between atoms: _58  and  _59
REMARK   27  A    between atoms: _61  and  _63
REMARK   28  A    between atoms: _63  and  _64
REMARK   29  A    between atoms: _63  and  _66
REMARK   30  A    between atoms: _66  and  _67
REMARK   31  A    between atoms: _67  and  _68
REMARK   32  A    between atoms: _70  and  _72
REMARK   33  A    between atoms: _72  and  _73
REMARK   34  A    between atoms: _72  and  _75
REMARK   35  A    between atoms: _75  and  _76
REMARK   36  A    between atoms: _79  and  _81
REMARK   37  A    between atoms: _81  and  _82
REMARK   38  A    between atoms: _81  and  _84
REMARK   39  A    between atoms: _84  and  _85
REMARK   40  A    between atoms: _88  and  _90
REMARK   41  A    between atoms: _90  and  _91
REMARK   42  A    between atoms: _90  and  _93
REMARK   43  A    between atoms: _93  and  _94
REMARK   44  A    between atoms: _94  and  _95
REMARK   45  A    between atoms: _95  and  _96
REMARK   46  A    between atoms: _106  and  _107
REMARK   47  A    between atoms: _113  and  _114
REMARK   48  A    between atoms: _119  and  _121
REMARK   49  A    between atoms: _121  and  _122
REMARK   50  A    between atoms: _121  and  _124
REMARK   51  A    between atoms: _124  and  _125
REMARK   52  A    between atoms: _130  and  _132
REMARK   53  A    between atoms: _132  and  _133
REMARK   54  A    between atoms: _135  and  _137
REMARK   55  A    between atoms: _137  and  _138
REMARK   56  A    between atoms: _137  and  _140
REMARK   57  A    between atoms: _140  and  _141
REMARK   58  A    between atoms: _143  and  _145
REMARK   59  A    between atoms: _145  and  _146
REMARK   60  A    between atoms: _145  and  _148
REMARK   61  A    between atoms: _148  and  _149
REMARK   62  A    between atoms: _152  and  _154
REMARK   63  A    between atoms: _154  and  _155
REMARK   64  A    between atoms: _154  and  _157
REMARK   65  A    between atoms: _157  and  _158
REMARK   66  A    between atoms: _163  and  _165
REMARK   67  A    between atoms: _165  and  _166
REMARK   68  A    between atoms: _169  and  _171
REMARK   69  A    between atoms: _171  and  _172
REMARK   70  A    between atoms: _171  and  _174
REMARK   71  A    between atoms: _174  and  _175
REMARK   72  A    between atoms: _178  and  _179
REMARK   73  A    between atoms: _184  and  _186
REMARK   74  A    between atoms: _186  and  _187
REMARK   75  A    between atoms: _189  and  _191
REMARK   76  A    between atoms: _191  and  _192
REMARK   77  A    between atoms: _191  and  _194
REMARK   78  A    between atoms: _194  and  _195
REMARK   79  A    between atoms: _198  and  _200
REMARK   80  A    between atoms: _200  and  _201
REMARK   81  A    between atoms: _204  and  _206
REMARK   82  A    between atoms: _206  and  _207
REMARK   83  A    between atoms: _206  and  _209
REMARK   84  A    between atoms: _209  and  _210
REMARK   85  A    between atoms: _215  and  _217
REMARK   86  A    between atoms: _217  and  _218
REMARK   87  A    between atoms: _217  and  _220
REMARK   88  A    between atoms: _220  and  _221
REMARK   89  A    between atoms: _223  and  _225
REMARK   90  A    between atoms: _225  and  _226
REMARK   91  A    between atoms: _225  and  _228
REMARK   92  A    between atoms: _228  and  _229
REMARK   93  A    between atoms: _229  and  _230
REMARK   94  A    between atoms: _230  and  _231
REMARK   95  A    between atoms: _231  and  _232
REMARK   96  A    between atoms: _236  and  _238
REMARK   97  A    between atoms: _238  and  _239
REMARK   98  A    between atoms: _238  and  _241
REMARK   99  A    between atoms: _241  and  _242
REMARK  100  A    between atoms: _247  and  _249
REMARK  101  A    between atoms: _249  and  _250
REMARK  102  A    between atoms: _249  and  _252
REMARK  103  A    between atoms: _252  and  _253
REMARK  104  A    between atoms: _255  and  _257
REMARK  105  A    between atoms: _257  and  _258
REMARK  106  A    between atoms: _257  and  _260
REMARK  107  A    between atoms: _260  and  _261
REMARK  108  A    between atoms: _263  and  _265
REMARK  109  A    between atoms: _265  and  _266
REMARK  110  A    between atoms: _265  and  _268
REMARK  111  A    between atoms: _268  and  _269
REMARK  112  A    between atoms: _275  and  _277
REMARK  113  A    between atoms: _277  and  _278
REMARK  114  A    between atoms: _277  and  _280
REMARK  115  A    between atoms: _280  and  _281
REMARK  116  A    between atoms: _281  and  _282
REMARK  117  A    between atoms: _287  and  _289
REMARK  118  A    between atoms: _289  and  _290
REMARK  119  A    between atoms: _289  and  _292
REMARK  120  A    between atoms: _292  and  _293
REMARK  121  A    between atoms: _296  and  _298
REMARK  122  A    between atoms: _298  and  _299
REMARK  123  A    between atoms: _298  and  _301
REMARK  124  A    between atoms: _301  and  _302
REMARK  125  A    between atoms: _307  and  _309
REMARK  126  A    between atoms: _309  and  _310
REMARK  127  A    between atoms: _309  and  _312
REMARK  128  A    between atoms: _312  and  _313
REMARK  129  A    between atoms: _313  and  _314
REMARK  130  A    between atoms: _316  and  _318
REMARK  131  A    between atoms: _318  and  _319
REMARK  132  A    between atoms: _318  and  _321
REMARK  133  A    between atoms: _321  and  _322
REMARK  134  A    between atoms: _325  and  _327
REMARK  135  A    between atoms: _327  and  _328
REMARK  136  A    between atoms: _327  and  _330
REMARK  137  A    between atoms: _330  and  _331
REMARK  138  A    between atoms: _331  and  _332
REMARK  139  A    between atoms: _332  and  _333
REMARK  140  A    between atoms: _342  and  _344
REMARK  141  A    between atoms: _344  and  _345
REMARK  142  A    between atoms: _344  and  _347
REMARK  143  A    between atoms: _347  and  _348
REMARK  144  A    between atoms: _353  and  _354
REMARK  145  A    between atoms: _356  and  _358
REMARK  146  A    between atoms: _358  and  _359
REMARK  147  A    between atoms: _358  and  _365
REMARK  148  A    between atoms: _359  and  _360
REMARK  149  A    between atoms: _360  and  _361
REMARK  150  A    between atoms: _361  and  _362
REMARK  151  A    between atoms: _362  and  _363
REMARK  152  A    between atoms: _370  and  _372
REMARK  153  A    between atoms: _372  and  _373
REMARK  154  A    between atoms: _372  and  _375
REMARK  155  A    between atoms: _375  and  _376
REMARK  156  A    between atoms: _378  and  _380
REMARK  157  A    between atoms: _380  and  _381
REMARK  158  A    between atoms: _380  and  _383
REMARK  159  A    between atoms: _383  and  _384
REMARK  160  A    between atoms: _384  and  _385
REMARK  161  A    between atoms: _385  and  _386
REMARK  162  A    between atoms: _386  and  _387
REMARK  163  A    between atoms: _391  and  _393
REMARK  164  A    between atoms: _393  and  _394
REMARK  165  A    between atoms: _397  and  _399
REMARK  166  A    between atoms: _399  and  _400
REMARK  167  A    between atoms: _399  and  _402
REMARK  168  A    between atoms: _402  and  _403
REMARK  169  A    between atoms: _406  and  _408
REMARK  170  A    between atoms: _408  and  _409
REMARK  171  A    between atoms: _408  and  _411
REMARK  172  A    between atoms: _411  and  _412
REMARK  173  A    between atoms: _417  and  _419
REMARK  174  A    between atoms: _419  and  _420
REMARK  175  A    between atoms: _419  and  _422
REMARK  176  A    between atoms: _422  and  _423
REMARK  177  A    between atoms: _426  and  _428
REMARK  178  A    between atoms: _428  and  _429
REMARK  179  A    between atoms: _431  and  _433
REMARK  180  A    between atoms: _433  and  _434
REMARK  181  A    between atoms: _433  and  _436
REMARK  182  A    between atoms: _436  and  _437
REMARK  183  A    between atoms: _437  and  _438
REMARK  184  A    between atoms: _438  and  _439
REMARK  185  A    between atoms: _439  and  _440
REMARK  186  A    between atoms: _444  and  _446
REMARK  187  A    between atoms: _446  and  _447
REMARK  188  A    between atoms: _450  and  _452
REMARK  189  A    between atoms: _452  and  _453
REMARK  190  A    between atoms: _452  and  _455
REMARK  191  A    between atoms: _457  and  _459
REMARK  192  A    between atoms: _459  and  _460
REMARK  193  A    between atoms: _463  and  _465
REMARK  194  A    between atoms: _465  and  _466
REMARK  195  A    between atoms: _465  and  _468
REMARK  196  A    between atoms: _468  and  _469
REMARK  197  A    between atoms: _471  and  _473
REMARK  198  A    between atoms: _473  and  _474
REMARK  199  A    between atoms: _473  and  _476
REMARK  200  A    between atoms: _476  and  _477
REMARK  201  A    between atoms: _480  and  _482
REMARK  202  A    between atoms: _482  and  _483
REMARK  203  A    between atoms: _482  and  _485
REMARK  204  A    between atoms: _485  and  _486
REMARK  205  A    between atoms: _489  and  _491
REMARK  206  A    between atoms: _491  and  _492
REMARK  207  A    between atoms: _491  and  _494
REMARK  208  A    between atoms: _494  and  _495
REMARK  209  A    between atoms: _495  and  _496
REMARK  210  A    between atoms: _501  and  _503
REMARK  211  A    between atoms: _503  and  _504
REMARK  212  A    between atoms: _503  and  _506
REMARK  213  A    between atoms: _506  and  _507
REMARK  214  A    between atoms: _513  and  _515
REMARK  215  A    between atoms: _515  and  _516
REMARK  216  A    between atoms: _515  and  _518
REMARK  217  A    between atoms: _518  and  _519
REMARK  218  A    between atoms: _519  and  _520
REMARK  219  A    between atoms: _520  and  _521
REMARK  220  A    between atoms: _521  and  _522
REMARK  221  A    between atoms: _526  and  _528
REMARK  222  A    between atoms: _528  and  _529
REMARK  223  A    between atoms: _528  and  _531
REMARK  224  A    between atoms: _531  and  _532
REMARK  225  A    between atoms: _537  and  _539
REMARK  226  A    between atoms: _539  and  _540
REMARK  227  A    between atoms: _539  and  _542
REMARK  228  A    between atoms: _542  and  _543
REMARK  229  A    between atoms: _549  and  _551
REMARK  230  A    between atoms: _551  and  _552
REMARK  231  A    between atoms: _551  and  _554
REMARK  232  A    between atoms: _554  and  _555
REMARK  233  A    between atoms: _555  and  _556
REMARK  234  A    between atoms: _559  and  _561
REMARK  235  A    between atoms: _561  and  _562
REMARK  236  A    between atoms: _561  and  _564
REMARK  237  A    between atoms: _564  and  _565
REMARK  238  A    between atoms: _565  and  _566
REMARK  239  A    between atoms: _571  and  _573
REMARK  240  A    between atoms: _573  and  _574
REMARK  241  A    between atoms: _573  and  _576
REMARK  242  A    between atoms: _576  and  _577
REMARK  243  A    between atoms: _577  and  _578
REMARK  244  A    between atoms: _578  and  _579
REMARK  245  A    between atoms: _588  and  _590
REMARK  246  A    between atoms: _590  and  _591
REMARK                            x       y       z     vdW  Elec       q    Type
REMARK                         _______ _______ _______ _____ _____    ______ ____
ROOT
ATOM      1  O   HOH     1       8.197  37.836  51.897  0.00  0.00    +0.000 OA
ENDROOT
TORSDOF 0
REMARK  Name = ../refined-set-2016/2xpc/2xpc_pocket.pdb
REMARK  246 active torsions:
REMARK  status: ('A' for Active; 'I' for Inactive)
REMARK    1  A    between atoms: _1  and  _3
REMARK    2  A    between atoms: _3  and  _4
REMARK    3  A    between atoms: _3  and  _6
REMARK    4  A    between atoms: _6  and  _7
REMARK    5  A    between atoms: _10  and  _12
REMARK    6  A    between atoms: _12  and  _13
REMARK    7  A    between atoms: _12  and  _15
REMARK    8  A    between atoms: _15  and  _16
REMARK    9  A    between atoms: _19  and  _21
REMARK   10  A    between atoms: _21  and  _22
REMARK   11  A    between atoms: _24  and  _26
REMARK   12  A    between atoms: _26  and  _27
REMARK   13  A    between atoms: _26  and  _29
REMARK   14  A    between atoms: _29  and  _30
REMARK   15  A    between atoms: _33  and  _35
REMARK   16  A    between atoms: _35  and  _36
REMARK   17  A    between atoms: _38  and  _40
REMARK   18  A    between atoms: _40  and  _41
REMARK   19  A    between atoms: _40  and  _43
REMARK   20  A    between atoms: _43  and  _44
REMARK   21  A    between atoms: _47  and  _49
REMARK   22  A    between atoms: _49  and  _50
REMARK   23  A    between atoms: _49  and  _52
REMARK   24  A    between atoms: _52  and  _53
REMARK   25  A    between atoms: _56  and  _58
REMARK   26  A    between atoms: _58  and  _59
REMARK   27  A    between atoms: _61  and  _63
REMARK   28  A    between atoms: _63  and  _64
REMARK   29  A    between atoms: _63  and  _66
REMARK   30  A    between atoms: _66  and  _67
REMARK   31  A    between atoms: _67  and  _68
REMARK   32  A    between atoms: _70  and  _72
REMARK   33  A    between atoms: _72  and  _73
REMARK   34  A    between atoms: _72  and  _75
REMARK   35  A    between atoms: _75  and  _76
REMARK   36  A    between atoms: _79  and  _81
REMARK   37  A    between atoms: _81  and  _82
REMARK   38  A    between atoms: _81  and  _84
REMARK   39  A    between atoms: _84  and  _85
REMARK   40  A    between atoms: _88  and  _90
REMARK   41  A    between atoms: _90  and  _91
REMARK   42  A    between atoms: _90  and  _93
REMARK   43  A    between atoms: _93  and  _94
REMARK   44  A    between atoms: _94  and  _95
REMARK   45  A    between atoms: _95  and  _96
REMARK   46  A    between atoms: _106  and  _107
REMARK   47  A    between atoms: _113  and  _114
REMARK   48  A    between atoms: _119  and  _121
REMARK   49  A    between atoms: _121  and  _122
REMARK   50  A    between atoms: _121  and  _124
REMARK   51  A    between atoms: _124  and  _125
REMARK   52  A    between atoms: _130  and  _132
REMARK   53  A    between atoms: _132  and  _133
REMARK   54  A    between atoms: _135  and  _137
REMARK   55  A    between atoms: _137  and  _138
REMARK   56  A    between atoms: _137  and  _140
REMARK   57  A    between atoms: _140  and  _141
REMARK   58  A    between atoms: _143  and  _145
REMARK   59  A    between atoms: _145  and  _146
REMARK   60  A    between atoms: _145  and  _148
REMARK   61  A    between atoms: _148  and  _149
REMARK   62  A    between atoms: _152  and  _154
REMARK   63  A    between atoms: _154  and  _155
REMARK   64  A    between atoms: _154  and  _157
REMARK   65  A    between atoms: _157  and  _158
REMARK   66  A    between atoms: _163  and  _165
REMARK   67  A    between atoms: _165  and  _166
REMARK   68  A    between atoms: _169  and  _171
REMARK   69  A    between atoms: _171  and  _172
REMARK   70  A    between atoms: _171  and  _174
REMARK   71  A    between atoms: _174  and  _175
REMARK   72  A    between atoms: _178  and  _179
REMARK   73  A    between atoms: _184  and  _186
REMARK   74  A    between atoms: _186  and  _187
REMARK   75  A    between atoms: _189  and  _191
REMARK   76  A    between atoms: _191  and  _192
REMARK   77  A    between atoms: _191  and  _194
REMARK   78  A    between atoms: _194  and  _195
REMARK   79  A    between atoms: _198  and  _200
REMARK   80  A    between atoms: _200  and  _201
REMARK   81  A    between atoms: _204  and  _206
REMARK   82  A    between atoms: _206  and  _207
REMARK   83  A    between atoms: _206  and  _209
REMARK   84  A    between atoms: _209  and  _210
REMARK   85  A    between atoms: _215  and  _217
REMARK   86  A    between atoms: _217  and  _218
REMARK   87  A    between atoms: _217  and  _220
REMARK   88  A    between atoms: _220  and  _221
REMARK   89  A    between atoms: _223  and  _225
REMARK   90  A    between atoms: _225  and  _226
REMARK   91  A    between atoms: _225  and  _228
REMARK   92  A    between atoms: _228  and  _229
REMARK   93  A    between atoms: _229  and  _230
REMARK   94  A    between atoms: _230  and  _231
REMARK   95  A    between atoms: _231  and  _232
REMARK   96  A    between atoms: _236  and  _238
REMARK   97  A    between atoms: _238  and  _239
REMARK   98  A    between atoms: _238  and  _241
REMARK   99  A    between atoms: _241  and  _242
REMARK  100  A    between atoms: _247  and  _249
REMARK  101  A    between atoms: _249  and  _250
REMARK  102  A    between atoms: _249  and  _252
REMARK  103  A    between atoms: _252  and  _253
REMARK  104  A    between atoms: _255  and  _257
REMARK  105  A    between atoms: _257  and  _258
REMARK  106  A    between atoms: _257  and  _260
REMARK  107  A    between atoms: _260  and  _261
REMARK  108  A    between atoms: _263  and  _265
REMARK  109  A    between atoms: _265  and  _266
REMARK  110  A    between atoms: _265  and  _268
REMARK  111  A    between atoms: _268  and  _269
REMARK  112  A    between atoms: _275  and  _277
REMARK  113  A    between atoms: _277  and  _278
REMARK  114  A    between atoms: _277  and  _280
REMARK  115  A    between atoms: _280  and  _281
REMARK  116  A    between atoms: _281  and  _282
REMARK  117  A    between atoms: _287  and  _289
REMARK  118  A    between atoms: _289  and  _290
REMARK  119  A    between atoms: _289  and  _292
REMARK  120  A    between atoms: _292  and  _293
REMARK  121  A    between atoms: _296  and  _298
REMARK  122  A    between atoms: _298  and  _299
REMARK  123  A    between atoms: _298  and  _301
REMARK  124  A    between atoms: _301  and  _302
REMARK  125  A    between atoms: _307  and  _309
REMARK  126  A    between atoms: _309  and  _310
REMARK  127  A    between atoms: _309  and  _312
REMARK  128  A    between atoms: _312  and  _313
REMARK  129  A    between atoms: _313  and  _314
REMARK  130  A    between atoms: _316  and  _318
REMARK  131  A    between atoms: _318  and  _319
REMARK  132  A    between atoms: _318  and  _321
REMARK  133  A    between atoms: _321  and  _322
REMARK  134  A    between atoms: _325  and  _327
REMARK  135  A    between atoms: _327  and  _328
REMARK  136  A    between atoms: _327  and  _330
REMARK  137  A    between atoms: _330  and  _331
REMARK  138  A    between atoms: _331  and  _332
REMARK  139  A    between atoms: _332  and  _333
REMARK  140  A    between atoms: _342  and  _344
REMARK  141  A    between atoms: _344  and  _345
REMARK  142  A    between atoms: _344  and  _347
REMARK  143  A    between atoms: _347  and  _348
REMARK  144  A    between atoms: _353  and  _354
REMARK  145  A    between atoms: _356  and  _358
REMARK  146  A    between atoms: _358  and  _359
REMARK  147  A    between atoms: _358  and  _365
REMARK  148  A    between atoms: _359  and  _360
REMARK  149  A    between atoms: _360  and  _361
REMARK  150  A    between atoms: _361  and  _362
REMARK  151  A    between atoms: _362  and  _363
REMARK  152  A    between atoms: _370  and  _372
REMARK  153  A    between atoms: _372  and  _373
REMARK  154  A    between atoms: _372  and  _375
REMARK  155  A    between atoms: _375  and  _376
REMARK  156  A    between atoms: _378  and  _380
REMARK  157  A    between atoms: _380  and  _381
REMARK  158  A    between atoms: _380  and  _383
REMARK  159  A    between atoms: _383  and  _384
REMARK  160  A    between atoms: _384  and  _385
REMARK  161  A    between atoms: _385  and  _386
REMARK  162  A    between atoms: _386  and  _387
REMARK  163  A    between atoms: _391  and  _393
REMARK  164  A    between atoms: _393  and  _394
REMARK  165  A    between atoms: _397  and  _399
REMARK  166  A    between atoms: _399  and  _400
REMARK  167  A    between atoms: _399  and  _402
REMARK  168  A    between atoms: _402  and  _403
REMARK  169  A    between atoms: _406  and  _408
REMARK  170  A    between atoms: _408  and  _409
REMARK  171  A    between atoms: _408  and  _411
REMARK  172  A    between atoms: _411  and  _412
REMARK  173  A    between atoms: _417  and  _419
REMARK  174  A    between atoms: _419  and  _420
REMARK  175  A    between atoms: _419  and  _422
REMARK  176  A    between atoms: _422  and  _423
REMARK  177  A    between atoms: _426  and  _428
REMARK  178  A    between atoms: _428  and  _429
REMARK  179  A    between atoms: _431  and  _433
REMARK  180  A    between atoms: _433  and  _434
REMARK  181  A    between atoms: _433  and  _436
REMARK  182  A    between atoms: _436  and  _437
REMARK  183  A    between atoms: _437  and  _438
REMARK  184  A    between atoms: _438  and  _439
REMARK  185  A    between atoms: _439  and  _440
REMARK  186  A    between atoms: _444  and  _446
REMARK  187  A    between atoms: _446  and  _447
REMARK  188  A    between atoms: _450  and  _452
REMARK  189  A    between atoms: _452  and  _453
REMARK  190  A    between atoms: _452  and  _455
REMARK  191  A    between atoms: _457  and  _459
REMARK  192  A    between atoms: _459  and  _460
REMARK  193  A    between atoms: _463  and  _465
REMARK  194  A    between atoms: _465  and  _466
REMARK  195  A    between atoms: _465  and  _468
REMARK  196  A    between atoms: _468  and  _469
REMARK  197  A    between atoms: _471  and  _473
REMARK  198  A    between atoms: _473  and  _474
REMARK  199  A    between atoms: _473  and  _476
REMARK  200  A    between atoms: _476  and  _477
REMARK  201  A    between atoms: _480  and  _482
REMARK  202  A    between atoms: _482  and  _483
REMARK  203  A    between atoms: _482  and  _485
REMARK  204  A    between atoms: _485  and  _486
REMARK  205  A    between atoms: _489  and  _491
REMARK  206  A    between atoms: _491  and  _492
REMARK  207  A    between atoms: _491  and  _494
REMARK  208  A    between atoms: _494  and  _495
REMARK  209  A    between atoms: _495  and  _496
REMARK  210  A    between atoms: _501  and  _503
REMARK  211  A    between atoms: _503  and  _504
REMARK  212  A    between atoms: _503  and  _506
REMARK  213  A    between atoms: _506  and  _507
REMARK  214  A    between atoms: _513  and  _515
REMARK  215  A    between atoms: _515  and  _516
REMARK  216  A    between atoms: _515  and  _518
REMARK  217  A    between atoms: _518  and  _519
REMARK  218  A    between atoms: _519  and  _520
REMARK  219  A    between atoms: _520  and  _521
REMARK  220  A    between atoms: _521  and  _522
REMARK  221  A    between atoms: _526  and  _528
REMARK  222  A    between atoms: _528  and  _529
REMARK  223  A    between atoms: _528  and  _531
REMARK  224  A    between atoms: _531  and  _532
REMARK  225  A    between atoms: _537  and  _539
REMARK  226  A    between atoms: _539  and  _540
REMARK  227  A    between atoms: _539  and  _542
REMARK  228  A    between atoms: _542  and  _543
REMARK  229  A    between atoms: _549  and  _551
REMARK  230  A    between atoms: _551  and  _552
REMARK  231  A    between atoms: _551  and  _554
REMARK  232  A    between atoms: _554  and  _555
REMARK  233  A    between atoms: _555  and  _556
REMARK  234  A    between atoms: _559  and  _561
REMARK  235  A    between atoms: _561  and  _562
REMARK  236  A    between atoms: _561  and  _564
REMARK  237  A    between atoms: _564  and  _565
REMARK  238  A    between atoms: _565  and  _566
REMARK  239  A    between atoms: _571  and  _573
REMARK  240  A    between atoms: _573  and  _574
REMARK  241  A    between atoms: _573  and  _576
REMARK  242  A    between atoms: _576  and  _577
REMARK  243  A    between atoms: _577  and  _578
REMARK  244  A    between atoms: _578  and  _579
REMARK  245  A    between atoms: _588  and  _590
REMARK  246  A    between atoms: _590  and  _591
REMARK                            x       y       z     vdW  Elec       q    Type
REMARK                         _______ _______ _______ _____ _____    ______ ____
ROOT
ATOM      1  O   HOH     1       5.664  34.889  53.274  0.00  0.00    +0.000 OA
ENDROOT
TORSDOF 0
REMARK  Name = ../refined-set-2016/2xpc/2xpc_pocket.pdb
REMARK  246 active torsions:
REMARK  status: ('A' for Active; 'I' for Inactive)
REMARK    1  A    between atoms: _1  and  _3
REMARK    2  A    between atoms: _3  and  _4
REMARK    3  A    between atoms: _3  and  _6
REMARK    4  A    between atoms: _6  and  _7
REMARK    5  A    between atoms: _10  and  _12
REMARK    6  A    between atoms: _12  and  _13
REMARK    7  A    between atoms: _12  and  _15
REMARK    8  A    between atoms: _15  and  _16
REMARK    9  A    between atoms: _19  and  _21
REMARK   10  A    between atoms: _21  and  _22
REMARK   11  A    between atoms: _24  and  _26
REMARK   12  A    between atoms: _26  and  _27
REMARK   13  A    between atoms: _26  and  _29
REMARK   14  A    between atoms: _29  and  _30
REMARK   15  A    between atoms: _33  and  _35
REMARK   16  A    between atoms: _35  and  _36
REMARK   17  A    between atoms: _38  and  _40
REMARK   18  A    between atoms: _40  and  _41
REMARK   19  A    between atoms: _40  and  _43
REMARK   20  A    between atoms: _43  and  _44
REMARK   21  A    between atoms: _47  and  _49
REMARK   22  A    between atoms: _49  and  _50
REMARK   23  A    between atoms: _49  and  _52
REMARK   24  A    between atoms: _52  and  _53
REMARK   25  A    between atoms: _56  and  _58
REMARK   26  A    between atoms: _58  and  _59
REMARK   27  A    between atoms: _61  and  _63
REMARK   28  A    between atoms: _63  and  _64
REMARK   29  A    between atoms: _63  and  _66
REMARK   30  A    between atoms: _66  and  _67
REMARK   31  A    between atoms: _67  and  _68
REMARK   32  A    between atoms: _70  and  _72
REMARK   33  A    between atoms: _72  and  _73
REMARK   34  A    between atoms: _72  and  _75
REMARK   35  A    between atoms: _75  and  _76
REMARK   36  A    between atoms: _79  and  _81
REMARK   37  A    between atoms: _81  and  _82
REMARK   38  A    between atoms: _81  and  _84
REMARK   39  A    between atoms: _84  and  _85
REMARK   40  A    between atoms: _88  and  _90
REMARK   41  A    between atoms: _90  and  _91
REMARK   42  A    between atoms: _90  and  _93
REMARK   43  A    between atoms: _93  and  _94
REMARK   44  A    between atoms: _94  and  _95
REMARK   45  A    between atoms: _95  and  _96
REMARK   46  A    between atoms: _106  and  _107
REMARK   47  A    between atoms: _113  and  _114
REMARK   48  A    between atoms: _119  and  _121
REMARK   49  A    between atoms: _121  and  _122
REMARK   50  A    between atoms: _121  and  _124
REMARK   51  A    between atoms: _124  and  _125
REMARK   52  A    between atoms: _130  and  _132
REMARK   53  A    between atoms: _132  and  _133
REMARK   54  A    between atoms: _135  and  _137
REMARK   55  A    between atoms: _137  and  _138
REMARK   56  A    between atoms: _137  and  _140
REMARK   57  A    between atoms: _140  and  _141
REMARK   58  A    between atoms: _143  and  _145
REMARK   59  A    between atoms: _145  and  _146
REMARK   60  A    between atoms: _145  and  _148
REMARK   61  A    between atoms: _148  and  _149
REMARK   62  A    between atoms: _152  and  _154
REMARK   63  A    between atoms: _154  and  _155
REMARK   64  A    between atoms: _154  and  _157
REMARK   65  A    between atoms: _157  and  _158
REMARK   66  A    between atoms: _163  and  _165
REMARK   67  A    between atoms: _165  and  _166
REMARK   68  A    between atoms: _169  and  _171
REMARK   69  A    between atoms: _171  and  _172
REMARK   70  A    between atoms: _171  and  _174
REMARK   71  A    between atoms: _174  and  _175
REMARK   72  A    between atoms: _178  and  _179
REMARK   73  A    between atoms: _184  and  _186
REMARK   74  A    between atoms: _186  and  _187
REMARK   75  A    between atoms: _189  and  _191
REMARK   76  A    between atoms: _191  and  _192
REMARK   77  A    between atoms: _191  and  _194
REMARK   78  A    between atoms: _194  and  _195
REMARK   79  A    between atoms: _198  and  _200
REMARK   80  A    between atoms: _200  and  _201
REMARK   81  A    between atoms: _204  and  _206
REMARK   82  A    between atoms: _206  and  _207
REMARK   83  A    between atoms: _206  and  _209
REMARK   84  A    between atoms: _209  and  _210
REMARK   85  A    between atoms: _215  and  _217
REMARK   86  A    between atoms: _217  and  _218
REMARK   87  A    between atoms: _217  and  _220
REMARK   88  A    between atoms: _220  and  _221
REMARK   89  A    between atoms: _223  and  _225
REMARK   90  A    between atoms: _225  and  _226
REMARK   91  A    between atoms: _225  and  _228
REMARK   92  A    between atoms: _228  and  _229
REMARK   93  A    between atoms: _229  and  _230
REMARK   94  A    between atoms: _230  and  _231
REMARK   95  A    between atoms: _231  and  _232
REMARK   96  A    between atoms: _236  and  _238
REMARK   97  A    between atoms: _238  and  _239
REMARK   98  A    between atoms: _238  and  _241
REMARK   99  A    between atoms: _241  and  _242
REMARK  100  A    between atoms: _247  and  _249
REMARK  101  A    between atoms: _249  and  _250
REMARK  102  A    between atoms: _249  and  _252
REMARK  103  A    between atoms: _252  and  _253
REMARK  104  A    between atoms: _255  and  _257
REMARK  105  A    between atoms: _257  and  _258
REMARK  106  A    between atoms: _257  and  _260
REMARK  107  A    between atoms: _260  and  _261
REMARK  108  A    between atoms: _263  and  _265
REMARK  109  A    between atoms: _265  and  _266
REMARK  110  A    between atoms: _265  and  _268
REMARK  111  A    between atoms: _268  and  _269
REMARK  112  A    between atoms: _275  and  _277
REMARK  113  A    between atoms: _277  and  _278
REMARK  114  A    between atoms: _277  and  _280
REMARK  115  A    between atoms: _280  and  _281
REMARK  116  A    between atoms: _281  and  _282
REMARK  117  A    between atoms: _287  and  _289
REMARK  118  A    between atoms: _289  and  _290
REMARK  119  A    between atoms: _289  and  _292
REMARK  120  A    between atoms: _292  and  _293
REMARK  121  A    between atoms: _296  and  _298
REMARK  122  A    between atoms: _298  and  _299
REMARK  123  A    between atoms: _298  and  _301
REMARK  124  A    between atoms: _301  and  _302
REMARK  125  A    between atoms: _307  and  _309
REMARK  126  A    between atoms: _309  and  _310
REMARK  127  A    between atoms: _309  and  _312
REMARK  128  A    between atoms: _312  and  _313
REMARK  129  A    between atoms: _313  and  _314
REMARK  130  A    between atoms: _316  and  _318
REMARK  131  A    between atoms: _318  and  _319
REMARK  132  A    between atoms: _318  and  _321
REMARK  133  A    between atoms: _321  and  _322
REMARK  134  A    between atoms: _325  and  _327
REMARK  135  A    between atoms: _327  and  _328
REMARK  136  A    between atoms: _327  and  _330
REMARK  137  A    between atoms: _330  and  _331
REMARK  138  A    between atoms: _331  and  _332
REMARK  139  A    between atoms: _332  and  _333
REMARK  140  A    between atoms: _342  and  _344
REMARK  141  A    between atoms: _344  and  _345
REMARK  142  A    between atoms: _344  and  _347
REMARK  143  A    between atoms: _347  and  _348
REMARK  144  A    between atoms: _353  and  _354
REMARK  145  A    between atoms: _356  and  _358
REMARK  146  A    between atoms: _358  and  _359
REMARK  147  A    between atoms: _358  and  _365
REMARK  148  A    between atoms: _359  and  _360
REMARK  149  A    between atoms: _360  and  _361
REMARK  150  A    between atoms: _361  and  _362
REMARK  151  A    between atoms: _362  and  _363
REMARK  152  A    between atoms: _370  and  _372
REMARK  153  A    between atoms: _372  and  _373
REMARK  154  A    between atoms: _372  and  _375
REMARK  155  A    between atoms: _375  and  _376
REMARK  156  A    between atoms: _378  and  _380
REMARK  157  A    between atoms: _380  and  _381
REMARK  158  A    between atoms: _380  and  _383
REMARK  159  A    between atoms: _383  and  _384
REMARK  160  A    between atoms: _384  and  _385
REMARK  161  A    between atoms: _385  and  _386
REMARK  162  A    between atoms: _386  and  _387
REMARK  163  A    between atoms: _391  and  _393
REMARK  164  A    between atoms: _393  and  _394
REMARK  165  A    between atoms: _397  and  _399
REMARK  166  A    between atoms: _399  and  _400
REMARK  167  A    between atoms: _399  and  _402
REMARK  168  A    between atoms: _402  and  _403
REMARK  169  A    between atoms: _406  and  _408
REMARK  170  A    between atoms: _408  and  _409
REMARK  171  A    between atoms: _408  and  _411
REMARK  172  A    between atoms: _411  and  _412
REMARK  173  A    between atoms: _417  and  _419
REMARK  174  A    between atoms: _419  and  _420
REMARK  175  A    between atoms: _419  and  _422
REMARK  176  A    between atoms: _422  and  _423
REMARK  177  A    between atoms: _426  and  _428
REMARK  178  A    between atoms: _428  and  _429
REMARK  179  A    between atoms: _431  and  _433
REMARK  180  A    between atoms: _433  and  _434
REMARK  181  A    between atoms: _433  and  _436
REMARK  182  A    between atoms: _436  and  _437
REMARK  183  A    between atoms: _437  and  _438
REMARK  184  A    between atoms: _438  and  _439
REMARK  185  A    between atoms: _439  and  _440
REMARK  186  A    between atoms: _444  and  _446
REMARK  187  A    between atoms: _446  and  _447
REMARK  188  A    between atoms: _450  and  _452
REMARK  189  A    between atoms: _452  and  _453
REMARK  190  A    between atoms: _452  and  _455
REMARK  191  A    between atoms: _457  and  _459
REMARK  192  A    between atoms: _459  and  _460
REMARK  193  A    between atoms: _463  and  _465
REMARK  194  A    between atoms: _465  and  _466
REMARK  195  A    between atoms: _465  and  _468
REMARK  196  A    between atoms: _468  and  _469
REMARK  197  A    between atoms: _471  and  _473
REMARK  198  A    between atoms: _473  and  _474
REMARK  199  A    between atoms: _473  and  _476
REMARK  200  A    between atoms: _476  and  _477
REMARK  201  A    between atoms: _480  and  _482
REMARK  202  A    between atoms: _482  and  _483
REMARK  203  A    between atoms: _482  and  _485
REMARK  204  A    between atoms: _485  and  _486
REMARK  205  A    between atoms: _489  and  _491
REMARK  206  A    between atoms: _491  and  _492
REMARK  207  A    between atoms: _491  and  _494
REMARK  208  A    between atoms: _494  and  _495
REMARK  209  A    between atoms: _495  and  _496
REMARK  210  A    between atoms: _501  and  _503
REMARK  211  A    between atoms: _503  and  _504
REMARK  212  A    between atoms: _503  and  _506
REMARK  213  A    between atoms: _506  and  _507
REMARK  214  A    between atoms: _513  and  _515
REMARK  215  A    between atoms: _515  and  _516
REMARK  216  A    between atoms: _515  and  _518
REMARK  217  A    between atoms: _518  and  _519
REMARK  218  A    between atoms: _519  and  _520
REMARK  219  A    between atoms: _520  and  _521
REMARK  220  A    between atoms: _521  and  _522
REMARK  221  A    between atoms: _526  and  _528
REMARK  222  A    between atoms: _528  and  _529
REMARK  223  A    between atoms: _528  and  _531
REMARK  224  A    between atoms: _531  and  _532
REMARK  225  A    between atoms: _537  and  _539
REMARK  226  A    between atoms: _539  and  _540
REMARK  227  A    between atoms: _539  and  _542
REMARK  228  A    between atoms: _542  and  _543
REMARK  229  A    between atoms: _549  and  _551
REMARK  230  A    between atoms: _551  and  _552
REMARK  231  A    between atoms: _551  and  _554
REMARK  232  A    between atoms: _554  and  _555
REMARK  233  A    between atoms: _555  and  _556
REMARK  234  A    between atoms: _559  and  _561
REMARK  235  A    between atoms: _561  and  _562
REMARK  236  A    between atoms: _561  and  _564
REMARK  237  A    between atoms: _564  and  _565
REMARK  238  A    between atoms: _565  and  _566
REMARK  239  A    between atoms: _571  and  _573
REMARK  240  A    between atoms: _573  and  _574
REMARK  241  A    between atoms: _573  and  _576
REMARK  242  A    between atoms: _576  and  _577
REMARK  243  A    between atoms: _577  and  _578
REMARK  244  A    between atoms: _578  and  _579
REMARK  245  A    between atoms: _588  and  _590
REMARK  246  A    between atoms: _590  and  _591
REMARK                            x       y       z     vdW  Elec       q    Type
REMARK                         _______ _______ _______ _____ _____    ______ ____
ROOT
ATOM      1  O   HOH     1       5.492  33.293  55.614  0.00  0.00    +0.000 OA
ENDROOT
TORSDOF 0
REMARK  Name = ../refined-set-2016/2xpc/2xpc_pocket.pdb
REMARK  246 active torsions:
REMARK  status: ('A' for Active; 'I' for Inactive)
REMARK    1  A    between atoms: _1  and  _3
REMARK    2  A    between atoms: _3  and  _4
REMARK    3  A    between atoms: _3  and  _6
REMARK    4  A    between atoms: _6  and  _7
REMARK    5  A    between atoms: _10  and  _12
REMARK    6  A    between atoms: _12  and  _13
REMARK    7  A    between atoms: _12  and  _15
REMARK    8  A    between atoms: _15  and  _16
REMARK    9  A    between atoms: _19  and  _21
REMARK   10  A    between atoms: _21  and  _22
REMARK   11  A    between atoms: _24  and  _26
REMARK   12  A    between atoms: _26  and  _27
REMARK   13  A    between atoms: _26  and  _29
REMARK   14  A    between atoms: _29  and  _30
REMARK   15  A    between atoms: _33  and  _35
REMARK   16  A    between atoms: _35  and  _36
REMARK   17  A    between atoms: _38  and  _40
REMARK   18  A    between atoms: _40  and  _41
REMARK   19  A    between atoms: _40  and  _43
REMARK   20  A    between atoms: _43  and  _44
REMARK   21  A    between atoms: _47  and  _49
REMARK   22  A    between atoms: _49  and  _50
REMARK   23  A    between atoms: _49  and  _52
REMARK   24  A    between atoms: _52  and  _53
REMARK   25  A    between atoms: _56  and  _58
REMARK   26  A    between atoms: _58  and  _59
REMARK   27  A    between atoms: _61  and  _63
REMARK   28  A    between atoms: _63  and  _64
REMARK   29  A    between atoms: _63  and  _66
REMARK   30  A    between atoms: _66  and  _67
REMARK   31  A    between atoms: _67  and  _68
REMARK   32  A    between atoms: _70  and  _72
REMARK   33  A    between atoms: _72  and  _73
REMARK   34  A    between atoms: _72  and  _75
REMARK   35  A    between atoms: _75  and  _76
REMARK   36  A    between atoms: _79  and  _81
REMARK   37  A    between atoms: _81  and  _82
REMARK   38  A    between atoms: _81  and  _84
REMARK   39  A    between atoms: _84  and  _85
REMARK   40  A    between atoms: _88  and  _90
REMARK   41  A    between atoms: _90  and  _91
REMARK   42  A    between atoms: _90  and  _93
REMARK   43  A    between atoms: _93  and  _94
REMARK   44  A    between atoms: _94  and  _95
REMARK   45  A    between atoms: _95  and  _96
REMARK   46  A    between atoms: _106  and  _107
REMARK   47  A    between atoms: _113  and  _114
REMARK   48  A    between atoms: _119  and  _121
REMARK   49  A    between atoms: _121  and  _122
REMARK   50  A    between atoms: _121  and  _124
REMARK   51  A    between atoms: _124  and  _125
REMARK   52  A    between atoms: _130  and  _132
REMARK   53  A    between atoms: _132  and  _133
REMARK   54  A    between atoms: _135  and  _137
REMARK   55  A    between atoms: _137  and  _138
REMARK   56  A    between atoms: _137  and  _140
REMARK   57  A    between atoms: _140  and  _141
REMARK   58  A    between atoms: _143  and  _145
REMARK   59  A    between atoms: _145  and  _146
REMARK   60  A    between atoms: _145  and  _148
REMARK   61  A    between atoms: _148  and  _149
REMARK   62  A    between atoms: _152  and  _154
REMARK   63  A    between atoms: _154  and  _155
REMARK   64  A    between atoms: _154  and  _157
REMARK   65  A    between atoms: _157  and  _158
REMARK   66  A    between atoms: _163  and  _165
REMARK   67  A    between atoms: _165  and  _166
REMARK   68  A    between atoms: _169  and  _171
REMARK   69  A    between atoms: _171  and  _172
REMARK   70  A    between atoms: _171  and  _174
REMARK   71  A    between atoms: _174  and  _175
REMARK   72  A    between atoms: _178  and  _179
REMARK   73  A    between atoms: _184  and  _186
REMARK   74  A    between atoms: _186  and  _187
REMARK   75  A    between atoms: _189  and  _191
REMARK   76  A    between atoms: _191  and  _192
REMARK   77  A    between atoms: _191  and  _194
REMARK   78  A    between atoms: _194  and  _195
REMARK   79  A    between atoms: _198  and  _200
REMARK   80  A    between atoms: _200  and  _201
REMARK   81  A    between atoms: _204  and  _206
REMARK   82  A    between atoms: _206  and  _207
REMARK   83  A    between atoms: _206  and  _209
REMARK   84  A    between atoms: _209  and  _210
REMARK   85  A    between atoms: _215  and  _217
REMARK   86  A    between atoms: _217  and  _218
REMARK   87  A    between atoms: _217  and  _220
REMARK   88  A    between atoms: _220  and  _221
REMARK   89  A    between atoms: _223  and  _225
REMARK   90  A    between atoms: _225  and  _226
REMARK   91  A    between atoms: _225  and  _228
REMARK   92  A    between atoms: _228  and  _229
REMARK   93  A    between atoms: _229  and  _230
REMARK   94  A    between atoms: _230  and  _231
REMARK   95  A    between atoms: _231  and  _232
REMARK   96  A    between atoms: _236  and  _238
REMARK   97  A    between atoms: _238  and  _239
REMARK   98  A    between atoms: _238  and  _241
REMARK   99  A    between atoms: _241  and  _242
REMARK  100  A    between atoms: _247  and  _249
REMARK  101  A    between atoms: _249  and  _250
REMARK  102  A    between atoms: _249  and  _252
REMARK  103  A    between atoms: _252  and  _253
REMARK  104  A    between atoms: _255  and  _257
REMARK  105  A    between atoms: _257  and  _258
REMARK  106  A    between atoms: _257  and  _260
REMARK  107  A    between atoms: _260  and  _261
REMARK  108  A    between atoms: _263  and  _265
REMARK  109  A    between atoms: _265  and  _266
REMARK  110  A    between atoms: _265  and  _268
REMARK  111  A    between atoms: _268  and  _269
REMARK  112  A    between atoms: _275  and  _277
REMARK  113  A    between atoms: _277  and  _278
REMARK  114  A    between atoms: _277  and  _280
REMARK  115  A    between atoms: _280  and  _281
REMARK  116  A    between atoms: _281  and  _282
REMARK  117  A    between atoms: _287  and  _289
REMARK  118  A    between atoms: _289  and  _290
REMARK  119  A    between atoms: _289  and  _292
REMARK  120  A    between atoms: _292  and  _293
REMARK  121  A    between atoms: _296  and  _298
REMARK  122  A    between atoms: _298  and  _299
REMARK  123  A    between atoms: _298  and  _301
REMARK  124  A    between atoms: _301  and  _302
REMARK  125  A    between atoms: _307  and  _309
REMARK  126  A    between atoms: _309  and  _310
REMARK  127  A    between atoms: _309  and  _312
REMARK  128  A    between atoms: _312  and  _313
REMARK  129  A    between atoms: _313  and  _314
REMARK  130  A    between atoms: _316  and  _318
REMARK  131  A    between atoms: _318  and  _319
REMARK  132  A    between atoms: _318  and  _321
REMARK  133  A    between atoms: _321  and  _322
REMARK  134  A    between atoms: _325  and  _327
REMARK  135  A    between atoms: _327  and  _328
REMARK  136  A    between atoms: _327  and  _330
REMARK  137  A    between atoms: _330  and  _331
REMARK  138  A    between atoms: _331  and  _332
REMARK  139  A    between atoms: _332  and  _333
REMARK  140  A    between atoms: _342  and  _344
REMARK  141  A    between atoms: _344  and  _345
REMARK  142  A    between atoms: _344  and  _347
REMARK  143  A    between atoms: _347  and  _348
REMARK  144  A    between atoms: _353  and  _354
REMARK  145  A    between atoms: _356  and  _358
REMARK  146  A    between atoms: _358  and  _359
REMARK  147  A    between atoms: _358  and  _365
REMARK  148  A    between atoms: _359  and  _360
REMARK  149  A    between atoms: _360  and  _361
REMARK  150  A    between atoms: _361  and  _362
REMARK  151  A    between atoms: _362  and  _363
REMARK  152  A    between atoms: _370  and  _372
REMARK  153  A    between atoms: _372  and  _373
REMARK  154  A    between atoms: _372  and  _375
REMARK  155  A    between atoms: _375  and  _376
REMARK  156  A    between atoms: _378  and  _380
REMARK  157  A    between atoms: _380  and  _381
REMARK  158  A    between atoms: _380  and  _383
REMARK  159  A    between atoms: _383  and  _384
REMARK  160  A    between atoms: _384  and  _385
REMARK  161  A    between atoms: _385  and  _386
REMARK  162  A    between atoms: _386  and  _387
REMARK  163  A    between atoms: _391  and  _393
REMARK  164  A    between atoms: _393  and  _394
REMARK  165  A    between atoms: _397  and  _399
REMARK  166  A    between atoms: _399  and  _400
REMARK  167  A    between atoms: _399  and  _402
REMARK  168  A    between atoms: _402  and  _403
REMARK  169  A    between atoms: _406  and  _408
REMARK  170  A    between atoms: _408  and  _409
REMARK  171  A    between atoms: _408  and  _411
REMARK  172  A    between atoms: _411  and  _412
REMARK  173  A    between atoms: _417  and  _419
REMARK  174  A    between atoms: _419  and  _420
REMARK  175  A    between atoms: _419  and  _422
REMARK  176  A    between atoms: _422  and  _423
REMARK  177  A    between atoms: _426  and  _428
REMARK  178  A    between atoms: _428  and  _429
REMARK  179  A    between atoms: _431  and  _433
REMARK  180  A    between atoms: _433  and  _434
REMARK  181  A    between atoms: _433  and  _436
REMARK  182  A    between atoms: _436  and  _437
REMARK  183  A    between atoms: _437  and  _438
REMARK  184  A    between atoms: _438  and  _439
REMARK  185  A    between atoms: _439  and  _440
REMARK  186  A    between atoms: _444  and  _446
REMARK  187  A    between atoms: _446  and  _447
REMARK  188  A    between atoms: _450  and  _452
REMARK  189  A    between atoms: _452  and  _453
REMARK  190  A    between atoms: _452  and  _455
REMARK  191  A    between atoms: _457  and  _459
REMARK  192  A    between atoms: _459  and  _460
REMARK  193  A    between atoms: _463  and  _465
REMARK  194  A    between atoms: _465  and  _466
REMARK  195  A    between atoms: _465  and  _468
REMARK  196  A    between atoms: _468  and  _469
REMARK  197  A    between atoms: _471  and  _473
REMARK  198  A    between atoms: _473  and  _474
REMARK  199  A    between atoms: _473  and  _476
REMARK  200  A    between atoms: _476  and  _477
REMARK  201  A    between atoms: _480  and  _482
REMARK  202  A    between atoms: _482  and  _483
REMARK  203  A    between atoms: _482  and  _485
REMARK  204  A    between atoms: _485  and  _486
REMARK  205  A    between atoms: _489  and  _491
REMARK  206  A    between atoms: _491  and  _492
REMARK  207  A    between atoms: _491  and  _494
REMARK  208  A    between atoms: _494  and  _495
REMARK  209  A    between atoms: _495  and  _496
REMARK  210  A    between atoms: _501  and  _503
REMARK  211  A    between atoms: _503  and  _504
REMARK  212  A    between atoms: _503  and  _506
REMARK  213  A    between atoms: _506  and  _507
REMARK  214  A    between atoms: _513  and  _515
REMARK  215  A    between atoms: _515  and  _516
REMARK  216  A    between atoms: _515  and  _518
REMARK  217  A    between atoms: _518  and  _519
REMARK  218  A    between atoms: _519  and  _520
REMARK  219  A    between atoms: _520  and  _521
REMARK  220  A    between atoms: _521  and  _522
REMARK  221  A    between atoms: _526  and  _528
REMARK  222  A    between atoms: _528  and  _529
REMARK  223  A    between atoms: _528  and  _531
REMARK  224  A    between atoms: _531  and  _532
REMARK  225  A    between atoms: _537  and  _539
REMARK  226  A    between atoms: _539  and  _540
REMARK  227  A    between atoms: _539  and  _542
REMARK  228  A    between atoms: _542  and  _543
REMARK  229  A    between atoms: _549  and  _551
REMARK  230  A    between atoms: _551  and  _552
REMARK  231  A    between atoms: _551  and  _554
REMARK  232  A    between atoms: _554  and  _555
REMARK  233  A    between atoms: _555  and  _556
REMARK  234  A    between atoms: _559  and  _561
REMARK  235  A    between atoms: _561  and  _562
REMARK  236  A    between atoms: _561  and  _564
REMARK  237  A    between atoms: _564  and  _565
REMARK  238  A    between atoms: _565  and  _566
REMARK  239  A    between atoms: _571  and  _573
REMARK  240  A    between atoms: _573  and  _574
REMARK  241  A    between atoms: _573  and  _576
REMARK  242  A    between atoms: _576  and  _577
REMARK  243  A    between atoms: _577  and  _578
REMARK  244  A    between atoms: _578  and  _579
REMARK  245  A    between atoms: _588  and  _590
REMARK  246  A    between atoms: _590  and  _591
REMARK                            x       y       z     vdW  Elec       q    Type
REMARK                         _______ _______ _______ _____ _____    ______ ____
ROOT
ATOM      1  O   HOH     1       0.101  31.986  41.798  0.00  0.00    +0.000 OA
ENDROOT
TORSDOF 0
REMARK  Name = ../refined-set-2016/2xpc/2xpc_pocket.pdb
REMARK  246 active torsions:
REMARK  status: ('A' for Active; 'I' for Inactive)
REMARK    1  A    between atoms: _1  and  _3
REMARK    2  A    between atoms: _3  and  _4
REMARK    3  A    between atoms: _3  and  _6
REMARK    4  A    between atoms: _6  and  _7
REMARK    5  A    between atoms: _10  and  _12
REMARK    6  A    between atoms: _12  and  _13
REMARK    7  A    between atoms: _12  and  _15
REMARK    8  A    between atoms: _15  and  _16
REMARK    9  A    between atoms: _19  and  _21
REMARK   10  A    between atoms: _21  and  _22
REMARK   11  A    between atoms: _24  and  _26
REMARK   12  A    between atoms: _26  and  _27
REMARK   13  A    between atoms: _26  and  _29
REMARK   14  A    between atoms: _29  and  _30
REMARK   15  A    between atoms: _33  and  _35
REMARK   16  A    between atoms: _35  and  _36
REMARK   17  A    between atoms: _38  and  _40
REMARK   18  A    between atoms: _40  and  _41
REMARK   19  A    between atoms: _40  and  _43
REMARK   20  A    between atoms: _43  and  _44
REMARK   21  A    between atoms: _47  and  _49
REMARK   22  A    between atoms: _49  and  _50
REMARK   23  A    between atoms: _49  and  _52
REMARK   24  A    between atoms: _52  and  _53
REMARK   25  A    between atoms: _56  and  _58
REMARK   26  A    between atoms: _58  and  _59
REMARK   27  A    between atoms: _61  and  _63
REMARK   28  A    between atoms: _63  and  _64
REMARK   29  A    between atoms: _63  and  _66
REMARK   30  A    between atoms: _66  and  _67
REMARK   31  A    between atoms: _67  and  _68
REMARK   32  A    between atoms: _70  and  _72
REMARK   33  A    between atoms: _72  and  _73
REMARK   34  A    between atoms: _72  and  _75
REMARK   35  A    between atoms: _75  and  _76
REMARK   36  A    between atoms: _79  and  _81
REMARK   37  A    between atoms: _81  and  _82
REMARK   38  A    between atoms: _81  and  _84
REMARK   39  A    between atoms: _84  and  _85
REMARK   40  A    between atoms: _88  and  _90
REMARK   41  A    between atoms: _90  and  _91
REMARK   42  A    between atoms: _90  and  _93
REMARK   43  A    between atoms: _93  and  _94
REMARK   44  A    between atoms: _94  and  _95
REMARK   45  A    between atoms: _95  and  _96
REMARK   46  A    between atoms: _106  and  _107
REMARK   47  A    between atoms: _113  and  _114
REMARK   48  A    between atoms: _119  and  _121
REMARK   49  A    between atoms: _121  and  _122
REMARK   50  A    between atoms: _121  and  _124
REMARK   51  A    between atoms: _124  and  _125
REMARK   52  A    between atoms: _130  and  _132
REMARK   53  A    between atoms: _132  and  _133
REMARK   54  A    between atoms: _135  and  _137
REMARK   55  A    between atoms: _137  and  _138
REMARK   56  A    between atoms: _137  and  _140
REMARK   57  A    between atoms: _140  and  _141
REMARK   58  A    between atoms: _143  and  _145
REMARK   59  A    between atoms: _145  and  _146
REMARK   60  A    between atoms: _145  and  _148
REMARK   61  A    between atoms: _148  and  _149
REMARK   62  A    between atoms: _152  and  _154
REMARK   63  A    between atoms: _154  and  _155
REMARK   64  A    between atoms: _154  and  _157
REMARK   65  A    between atoms: _157  and  _158
REMARK   66  A    between atoms: _163  and  _165
REMARK   67  A    between atoms: _165  and  _166
REMARK   68  A    between atoms: _169  and  _171
REMARK   69  A    between atoms: _171  and  _172
REMARK   70  A    between atoms: _171  and  _174
REMARK   71  A    between atoms: _174  and  _175
REMARK   72  A    between atoms: _178  and  _179
REMARK   73  A    between atoms: _184  and  _186
REMARK   74  A    between atoms: _186  and  _187
REMARK   75  A    between atoms: _189  and  _191
REMARK   76  A    between atoms: _191  and  _192
REMARK   77  A    between atoms: _191  and  _194
REMARK   78  A    between atoms: _194  and  _195
REMARK   79  A    between atoms: _198  and  _200
REMARK   80  A    between atoms: _200  and  _201
REMARK   81  A    between atoms: _204  and  _206
REMARK   82  A    between atoms: _206  and  _207
REMARK   83  A    between atoms: _206  and  _209
REMARK   84  A    between atoms: _209  and  _210
REMARK   85  A    between atoms: _215  and  _217
REMARK   86  A    between atoms: _217  and  _218
REMARK   87  A    between atoms: _217  and  _220
REMARK   88  A    between atoms: _220  and  _221
REMARK   89  A    between atoms: _223  and  _225
REMARK   90  A    between atoms: _225  and  _226
REMARK   91  A    between atoms: _225  and  _228
REMARK   92  A    between atoms: _228  and  _229
REMARK   93  A    between atoms: _229  and  _230
REMARK   94  A    between atoms: _230  and  _231
REMARK   95  A    between atoms: _231  and  _232
REMARK   96  A    between atoms: _236  and  _238
REMARK   97  A    between atoms: _238  and  _239
REMARK   98  A    between atoms: _238  and  _241
REMARK   99  A    between atoms: _241  and  _242
REMARK  100  A    between atoms: _247  and  _249
REMARK  101  A    between atoms: _249  and  _250
REMARK  102  A    between atoms: _249  and  _252
REMARK  103  A    between atoms: _252  and  _253
REMARK  104  A    between atoms: _255  and  _257
REMARK  105  A    between atoms: _257  and  _258
REMARK  106  A    between atoms: _257  and  _260
REMARK  107  A    between atoms: _260  and  _261
REMARK  108  A    between atoms: _263  and  _265
REMARK  109  A    between atoms: _265  and  _266
REMARK  110  A    between atoms: _265  and  _268
REMARK  111  A    between atoms: _268  and  _269
REMARK  112  A    between atoms: _275  and  _277
REMARK  113  A    between atoms: _277  and  _278
REMARK  114  A    between atoms: _277  and  _280
REMARK  115  A    between atoms: _280  and  _281
REMARK  116  A    between atoms: _281  and  _282
REMARK  117  A    between atoms: _287  and  _289
REMARK  118  A    between atoms: _289  and  _290
REMARK  119  A    between atoms: _289  and  _292
REMARK  120  A    between atoms: _292  and  _293
REMARK  121  A    between atoms: _296  and  _298
REMARK  122  A    between atoms: _298  and  _299
REMARK  123  A    between atoms: _298  and  _301
REMARK  124  A    between atoms: _301  and  _302
REMARK  125  A    between atoms: _307  and  _309
REMARK  126  A    between atoms: _309  and  _310
REMARK  127  A    between atoms: _309  and  _312
REMARK  128  A    between atoms: _312  and  _313
REMARK  129  A    between atoms: _313  and  _314
REMARK  130  A    between atoms: _316  and  _318
REMARK  131  A    between atoms: _318  and  _319
REMARK  132  A    between atoms: _318  and  _321
REMARK  133  A    between atoms: _321  and  _322
REMARK  134  A    between atoms: _325  and  _327
REMARK  135  A    between atoms: _327  and  _328
REMARK  136  A    between atoms: _327  and  _330
REMARK  137  A    between atoms: _330  and  _331
REMARK  138  A    between atoms: _331  and  _332
REMARK  139  A    between atoms: _332  and  _333
REMARK  140  A    between atoms: _342  and  _344
REMARK  141  A    between atoms: _344  and  _345
REMARK  142  A    between atoms: _344  and  _347
REMARK  143  A    between atoms: _347  and  _348
REMARK  144  A    between atoms: _353  and  _354
REMARK  145  A    between atoms: _356  and  _358
REMARK  146  A    between atoms: _358  and  _359
REMARK  147  A    between atoms: _358  and  _365
REMARK  148  A    between atoms: _359  and  _360
REMARK  149  A    between atoms: _360  and  _361
REMARK  150  A    between atoms: _361  and  _362
REMARK  151  A    between atoms: _362  and  _363
REMARK  152  A    between atoms: _370  and  _372
REMARK  153  A    between atoms: _372  and  _373
REMARK  154  A    between atoms: _372  and  _375
REMARK  155  A    between atoms: _375  and  _376
REMARK  156  A    between atoms: _378  and  _380
REMARK  157  A    between atoms: _380  and  _381
REMARK  158  A    between atoms: _380  and  _383
REMARK  159  A    between atoms: _383  and  _384
REMARK  160  A    between atoms: _384  and  _385
REMARK  161  A    between atoms: _385  and  _386
REMARK  162  A    between atoms: _386  and  _387
REMARK  163  A    between atoms: _391  and  _393
REMARK  164  A    between atoms: _393  and  _394
REMARK  165  A    between atoms: _397  and  _399
REMARK  166  A    between atoms: _399  and  _400
REMARK  167  A    between atoms: _399  and  _402
REMARK  168  A    between atoms: _402  and  _403
REMARK  169  A    between atoms: _406  and  _408
REMARK  170  A    between atoms: _408  and  _409
REMARK  171  A    between atoms: _408  and  _411
REMARK  172  A    between atoms: _411  and  _412
REMARK  173  A    between atoms: _417  and  _419
REMARK  174  A    between atoms: _419  and  _420
REMARK  175  A    between atoms: _419  and  _422
REMARK  176  A    between atoms: _422  and  _423
REMARK  177  A    between atoms: _426  and  _428
REMARK  178  A    between atoms: _428  and  _429
REMARK  179  A    between atoms: _431  and  _433
REMARK  180  A    between atoms: _433  and  _434
REMARK  181  A    between atoms: _433  and  _436
REMARK  182  A    between atoms: _436  and  _437
REMARK  183  A    between atoms: _437  and  _438
REMARK  184  A    between atoms: _438  and  _439
REMARK  185  A    between atoms: _439  and  _440
REMARK  186  A    between atoms: _444  and  _446
REMARK  187  A    between atoms: _446  and  _447
REMARK  188  A    between atoms: _450  and  _452
REMARK  189  A    between atoms: _452  and  _453
REMARK  190  A    between atoms: _452  and  _455
REMARK  191  A    between atoms: _457  and  _459
REMARK  192  A    between atoms: _459  and  _460
REMARK  193  A    between atoms: _463  and  _465
REMARK  194  A    between atoms: _465  and  _466
REMARK  195  A    between atoms: _465  and  _468
REMARK  196  A    between atoms: _468  and  _469
REMARK  197  A    between atoms: _471  and  _473
REMARK  198  A    between atoms: _473  and  _474
REMARK  199  A    between atoms: _473  and  _476
REMARK  200  A    between atoms: _476  and  _477
REMARK  201  A    between atoms: _480  and  _482
REMARK  202  A    between atoms: _482  and  _483
REMARK  203  A    between atoms: _482  and  _485
REMARK  204  A    between atoms: _485  and  _486
REMARK  205  A    between atoms: _489  and  _491
REMARK  206  A    between atoms: _491  and  _492
REMARK  207  A    between atoms: _491  and  _494
REMARK  208  A    between atoms: _494  and  _495
REMARK  209  A    between atoms: _495  and  _496
REMARK  210  A    between atoms: _501  and  _503
REMARK  211  A    between atoms: _503  and  _504
REMARK  212  A    between atoms: _503  and  _506
REMARK  213  A    between atoms: _506  and  _507
REMARK  214  A    between atoms: _513  and  _515
REMARK  215  A    between atoms: _515  and  _516
REMARK  216  A    between atoms: _515  and  _518
REMARK  217  A    between atoms: _518  and  _519
REMARK  218  A    between atoms: _519  and  _520
REMARK  219  A    between atoms: _520  and  _521
REMARK  220  A    between atoms: _521  and  _522
REMARK  221  A    between atoms: _526  and  _528
REMARK  222  A    between atoms: _528  and  _529
REMARK  223  A    between atoms: _528  and  _531
REMARK  224  A    between atoms: _531  and  _532
REMARK  225  A    between atoms: _537  and  _539
REMARK  226  A    between atoms: _539  and  _540
REMARK  227  A    between atoms: _539  and  _542
REMARK  228  A    between atoms: _542  and  _543
REMARK  229  A    between atoms: _549  and  _551
REMARK  230  A    between atoms: _551  and  _552
REMARK  231  A    between atoms: _551  and  _554
REMARK  232  A    between atoms: _554  and  _555
REMARK  233  A    between atoms: _555  and  _556
REMARK  234  A    between atoms: _559  and  _561
REMARK  235  A    between atoms: _561  and  _562
REMARK  236  A    between atoms: _561  and  _564
REMARK  237  A    between atoms: _564  and  _565
REMARK  238  A    between atoms: _565  and  _566
REMARK  239  A    between atoms: _571  and  _573
REMARK  240  A    between atoms: _573  and  _574
REMARK  241  A    between atoms: _573  and  _576
REMARK  242  A    between atoms: _576  and  _577
REMARK  243  A    between atoms: _577  and  _578
REMARK  244  A    between atoms: _578  and  _579
REMARK  245  A    between atoms: _588  and  _590
REMARK  246  A    between atoms: _590  and  _591
REMARK                            x       y       z     vdW  Elec       q    Type
REMARK                         _______ _______ _______ _____ _____    ______ ____
ROOT
ATOM      1  O   HOH     1       9.207  29.758  44.824  0.00  0.00    +0.000 OA
ENDROOT
TORSDOF 0
REMARK  Name = ../refined-set-2016/2xpc/2xpc_pocket.pdb
REMARK  246 active torsions:
REMARK  status: ('A' for Active; 'I' for Inactive)
REMARK    1  A    between atoms: _1  and  _3
REMARK    2  A    between atoms: _3  and  _4
REMARK    3  A    between atoms: _3  and  _6
REMARK    4  A    between atoms: _6  and  _7
REMARK    5  A    between atoms: _10  and  _12
REMARK    6  A    between atoms: _12  and  _13
REMARK    7  A    between atoms: _12  and  _15
REMARK    8  A    between atoms: _15  and  _16
REMARK    9  A    between atoms: _19  and  _21
REMARK   10  A    between atoms: _21  and  _22
REMARK   11  A    between atoms: _24  and  _26
REMARK   12  A    between atoms: _26  and  _27
REMARK   13  A    between atoms: _26  and  _29
REMARK   14  A    between atoms: _29  and  _30
REMARK   15  A    between atoms: _33  and  _35
REMARK   16  A    between atoms: _35  and  _36
REMARK   17  A    between atoms: _38  and  _40
REMARK   18  A    between atoms: _40  and  _41
REMARK   19  A    between atoms: _40  and  _43
REMARK   20  A    between atoms: _43  and  _44
REMARK   21  A    between atoms: _47  and  _49
REMARK   22  A    between atoms: _49  and  _50
REMARK   23  A    between atoms: _49  and  _52
REMARK   24  A    between atoms: _52  and  _53
REMARK   25  A    between atoms: _56  and  _58
REMARK   26  A    between atoms: _58  and  _59
REMARK   27  A    between atoms: _61  and  _63
REMARK   28  A    between atoms: _63  and  _64
REMARK   29  A    between atoms: _63  and  _66
REMARK   30  A    between atoms: _66  and  _67
REMARK   31  A    between atoms: _67  and  _68
REMARK   32  A    between atoms: _70  and  _72
REMARK   33  A    between atoms: _72  and  _73
REMARK   34  A    between atoms: _72  and  _75
REMARK   35  A    between atoms: _75  and  _76
REMARK   36  A    between atoms: _79  and  _81
REMARK   37  A    between atoms: _81  and  _82
REMARK   38  A    between atoms: _81  and  _84
REMARK   39  A    between atoms: _84  and  _85
REMARK   40  A    between atoms: _88  and  _90
REMARK   41  A    between atoms: _90  and  _91
REMARK   42  A    between atoms: _90  and  _93
REMARK   43  A    between atoms: _93  and  _94
REMARK   44  A    between atoms: _94  and  _95
REMARK   45  A    between atoms: _95  and  _96
REMARK   46  A    between atoms: _106  and  _107
REMARK   47  A    between atoms: _113  and  _114
REMARK   48  A    between atoms: _119  and  _121
REMARK   49  A    between atoms: _121  and  _122
REMARK   50  A    between atoms: _121  and  _124
REMARK   51  A    between atoms: _124  and  _125
REMARK   52  A    between atoms: _130  and  _132
REMARK   53  A    between atoms: _132  and  _133
REMARK   54  A    between atoms: _135  and  _137
REMARK   55  A    between atoms: _137  and  _138
REMARK   56  A    between atoms: _137  and  _140
REMARK   57  A    between atoms: _140  and  _141
REMARK   58  A    between atoms: _143  and  _145
REMARK   59  A    between atoms: _145  and  _146
REMARK   60  A    between atoms: _145  and  _148
REMARK   61  A    between atoms: _148  and  _149
REMARK   62  A    between atoms: _152  and  _154
REMARK   63  A    between atoms: _154  and  _155
REMARK   64  A    between atoms: _154  and  _157
REMARK   65  A    between atoms: _157  and  _158
REMARK   66  A    between atoms: _163  and  _165
REMARK   67  A    between atoms: _165  and  _166
REMARK   68  A    between atoms: _169  and  _171
REMARK   69  A    between atoms: _171  and  _172
REMARK   70  A    between atoms: _171  and  _174
REMARK   71  A    between atoms: _174  and  _175
REMARK   72  A    between atoms: _178  and  _179
REMARK   73  A    between atoms: _184  and  _186
REMARK   74  A    between atoms: _186  and  _187
REMARK   75  A    between atoms: _189  and  _191
REMARK   76  A    between atoms: _191  and  _192
REMARK   77  A    between atoms: _191  and  _194
REMARK   78  A    between atoms: _194  and  _195
REMARK   79  A    between atoms: _198  and  _200
REMARK   80  A    between atoms: _200  and  _201
REMARK   81  A    between atoms: _204  and  _206
REMARK   82  A    between atoms: _206  and  _207
REMARK   83  A    between atoms: _206  and  _209
REMARK   84  A    between atoms: _209  and  _210
REMARK   85  A    between atoms: _215  and  _217
REMARK   86  A    between atoms: _217  and  _218
REMARK   87  A    between atoms: _217  and  _220
REMARK   88  A    between atoms: _220  and  _221
REMARK   89  A    between atoms: _223  and  _225
REMARK   90  A    between atoms: _225  and  _226
REMARK   91  A    between atoms: _225  and  _228
REMARK   92  A    between atoms: _228  and  _229
REMARK   93  A    between atoms: _229  and  _230
REMARK   94  A    between atoms: _230  and  _231
REMARK   95  A    between atoms: _231  and  _232
REMARK   96  A    between atoms: _236  and  _238
REMARK   97  A    between atoms: _238  and  _239
REMARK   98  A    between atoms: _238  and  _241
REMARK   99  A    between atoms: _241  and  _242
REMARK  100  A    between atoms: _247  and  _249
REMARK  101  A    between atoms: _249  and  _250
REMARK  102  A    between atoms: _249  and  _252
REMARK  103  A    between atoms: _252  and  _253
REMARK  104  A    between atoms: _255  and  _257
REMARK  105  A    between atoms: _257  and  _258
REMARK  106  A    between atoms: _257  and  _260
REMARK  107  A    between atoms: _260  and  _261
REMARK  108  A    between atoms: _263  and  _265
REMARK  109  A    between atoms: _265  and  _266
REMARK  110  A    between atoms: _265  and  _268
REMARK  111  A    between atoms: _268  and  _269
REMARK  112  A    between atoms: _275  and  _277
REMARK  113  A    between atoms: _277  and  _278
REMARK  114  A    between atoms: _277  and  _280
REMARK  115  A    between atoms: _280  and  _281
REMARK  116  A    between atoms: _281  and  _282
REMARK  117  A    between atoms: _287  and  _289
REMARK  118  A    between atoms: _289  and  _290
REMARK  119  A    between atoms: _289  and  _292
REMARK  120  A    between atoms: _292  and  _293
REMARK  121  A    between atoms: _296  and  _298
REMARK  122  A    between atoms: _298  and  _299
REMARK  123  A    between atoms: _298  and  _301
REMARK  124  A    between atoms: _301  and  _302
REMARK  125  A    between atoms: _307  and  _309
REMARK  126  A    between atoms: _309  and  _310
REMARK  127  A    between atoms: _309  and  _312
REMARK  128  A    between atoms: _312  and  _313
REMARK  129  A    between atoms: _313  and  _314
REMARK  130  A    between atoms: _316  and  _318
REMARK  131  A    between atoms: _318  and  _319
REMARK  132  A    between atoms: _318  and  _321
REMARK  133  A    between atoms: _321  and  _322
REMARK  134  A    between atoms: _325  and  _327
REMARK  135  A    between atoms: _327  and  _328
REMARK  136  A    between atoms: _327  and  _330
REMARK  137  A    between atoms: _330  and  _331
REMARK  138  A    between atoms: _331  and  _332
REMARK  139  A    between atoms: _332  and  _333
REMARK  140  A    between atoms: _342  and  _344
REMARK  141  A    between atoms: _344  and  _345
REMARK  142  A    between atoms: _344  and  _347
REMARK  143  A    between atoms: _347  and  _348
REMARK  144  A    between atoms: _353  and  _354
REMARK  145  A    between atoms: _356  and  _358
REMARK  146  A    between atoms: _358  and  _359
REMARK  147  A    between atoms: _358  and  _365
REMARK  148  A    between atoms: _359  and  _360
REMARK  149  A    between atoms: _360  and  _361
REMARK  150  A    between atoms: _361  and  _362
REMARK  151  A    between atoms: _362  and  _363
REMARK  152  A    between atoms: _370  and  _372
REMARK  153  A    between atoms: _372  and  _373
REMARK  154  A    between atoms: _372  and  _375
REMARK  155  A    between atoms: _375  and  _376
REMARK  156  A    between atoms: _378  and  _380
REMARK  157  A    between atoms: _380  and  _381
REMARK  158  A    between atoms: _380  and  _383
REMARK  159  A    between atoms: _383  and  _384
REMARK  160  A    between atoms: _384  and  _385
REMARK  161  A    between atoms: _385  and  _386
REMARK  162  A    between atoms: _386  and  _387
REMARK  163  A    between atoms: _391  and  _393
REMARK  164  A    between atoms: _393  and  _394
REMARK  165  A    between atoms: _397  and  _399
REMARK  166  A    between atoms: _399  and  _400
REMARK  167  A    between atoms: _399  and  _402
REMARK  168  A    between atoms: _402  and  _403
REMARK  169  A    between atoms: _406  and  _408
REMARK  170  A    between atoms: _408  and  _409
REMARK  171  A    between atoms: _408  and  _411
REMARK  172  A    between atoms: _411  and  _412
REMARK  173  A    between atoms: _417  and  _419
REMARK  174  A    between atoms: _419  and  _420
REMARK  175  A    between atoms: _419  and  _422
REMARK  176  A    between atoms: _422  and  _423
REMARK  177  A    between atoms: _426  and  _428
REMARK  178  A    between atoms: _428  and  _429
REMARK  179  A    between atoms: _431  and  _433
REMARK  180  A    between atoms: _433  and  _434
REMARK  181  A    between atoms: _433  and  _436
REMARK  182  A    between atoms: _436  and  _437
REMARK  183  A    between atoms: _437  and  _438
REMARK  184  A    between atoms: _438  and  _439
REMARK  185  A    between atoms: _439  and  _440
REMARK  186  A    between atoms: _444  and  _446
REMARK  187  A    between atoms: _446  and  _447
REMARK  188  A    between atoms: _450  and  _452
REMARK  189  A    between atoms: _452  and  _453
REMARK  190  A    between atoms: _452  and  _455
REMARK  191  A    between atoms: _457  and  _459
REMARK  192  A    between atoms: _459  and  _460
REMARK  193  A    between atoms: _463  and  _465
REMARK  194  A    between atoms: _465  and  _466
REMARK  195  A    between atoms: _465  and  _468
REMARK  196  A    between atoms: _468  and  _469
REMARK  197  A    between atoms: _471  and  _473
REMARK  198  A    between atoms: _473  and  _474
REMARK  199  A    between atoms: _473  and  _476
REMARK  200  A    between atoms: _476  and  _477
REMARK  201  A    between atoms: _480  and  _482
REMARK  202  A    between atoms: _482  and  _483
REMARK  203  A    between atoms: _482  and  _485
REMARK  204  A    between atoms: _485  and  _486
REMARK  205  A    between atoms: _489  and  _491
REMARK  206  A    between atoms: _491  and  _492
REMARK  207  A    between atoms: _491  and  _494
REMARK  208  A    between atoms: _494  and  _495
REMARK  209  A    between atoms: _495  and  _496
REMARK  210  A    between atoms: _501  and  _503
REMARK  211  A    between atoms: _503  and  _504
REMARK  212  A    between atoms: _503  and  _506
REMARK  213  A    between atoms: _506  and  _507
REMARK  214  A    between atoms: _513  and  _515
REMARK  215  A    between atoms: _515  and  _516
REMARK  216  A    between atoms: _515  and  _518
REMARK  217  A    between atoms: _518  and  _519
REMARK  218  A    between atoms: _519  and  _520
REMARK  219  A    between atoms: _520  and  _521
REMARK  220  A    between atoms: _521  and  _522
REMARK  221  A    between atoms: _526  and  _528
REMARK  222  A    between atoms: _528  and  _529
REMARK  223  A    between atoms: _528  and  _531
REMARK  224  A    between atoms: _531  and  _532
REMARK  225  A    between atoms: _537  and  _539
REMARK  226  A    between atoms: _539  and  _540
REMARK  227  A    between atoms: _539  and  _542
REMARK  228  A    between atoms: _542  and  _543
REMARK  229  A    between atoms: _549  and  _551
REMARK  230  A    between atoms: _551  and  _552
REMARK  231  A    between atoms: _551  and  _554
REMARK  232  A    between atoms: _554  and  _555
REMARK  233  A    between atoms: _555  and  _556
REMARK  234  A    between atoms: _559  and  _561
REMARK  235  A    between atoms: _561  and  _562
REMARK  236  A    between atoms: _561  and  _564
REMARK  237  A    between atoms: _564  and  _565
REMARK  238  A    between atoms: _565  and  _566
REMARK  239  A    between atoms: _571  and  _573
REMARK  240  A    between atoms: _573  and  _574
REMARK  241  A    between atoms: _573  and  _576
REMARK  242  A    between atoms: _576  and  _577
REMARK  243  A    between atoms: _577  and  _578
REMARK  244  A    between atoms: _578  and  _579
REMARK  245  A    between atoms: _588  and  _590
REMARK  246  A    between atoms: _590  and  _591
REMARK                            x       y       z     vdW  Elec       q    Type
REMARK                         _______ _______ _______ _____ _____    ______ ____
ROOT
ATOM      1  O   HOH     1       8.160  26.487  51.860  0.00  0.00    +0.000 OA
ENDROOT
TORSDOF 0
REMARK  Name = ../refined-set-2016/2xpc/2xpc_pocket.pdb
REMARK  246 active torsions:
REMARK  status: ('A' for Active; 'I' for Inactive)
REMARK    1  A    between atoms: _1  and  _3
REMARK    2  A    between atoms: _3  and  _4
REMARK    3  A    between atoms: _3  and  _6
REMARK    4  A    between atoms: _6  and  _7
REMARK    5  A    between atoms: _10  and  _12
REMARK    6  A    between atoms: _12  and  _13
REMARK    7  A    between atoms: _12  and  _15
REMARK    8  A    between atoms: _15  and  _16
REMARK    9  A    between atoms: _19  and  _21
REMARK   10  A    between atoms: _21  and  _22
REMARK   11  A    between atoms: _24  and  _26
REMARK   12  A    between atoms: _26  and  _27
REMARK   13  A    between atoms: _26  and  _29
REMARK   14  A    between atoms: _29  and  _30
REMARK   15  A    between atoms: _33  and  _35
REMARK   16  A    between atoms: _35  and  _36
REMARK   17  A    between atoms: _38  and  _40
REMARK   18  A    between atoms: _40  and  _41
REMARK   19  A    between atoms: _40  and  _43
REMARK   20  A    between atoms: _43  and  _44
REMARK   21  A    between atoms: _47  and  _49
REMARK   22  A    between atoms: _49  and  _50
REMARK   23  A    between atoms: _49  and  _52
REMARK   24  A    between atoms: _52  and  _53
REMARK   25  A    between atoms: _56  and  _58
REMARK   26  A    between atoms: _58  and  _59
REMARK   27  A    between atoms: _61  and  _63
REMARK   28  A    between atoms: _63  and  _64
REMARK   29  A    between atoms: _63  and  _66
REMARK   30  A    between atoms: _66  and  _67
REMARK   31  A    between atoms: _67  and  _68
REMARK   32  A    between atoms: _70  and  _72
REMARK   33  A    between atoms: _72  and  _73
REMARK   34  A    between atoms: _72  and  _75
REMARK   35  A    between atoms: _75  and  _76
REMARK   36  A    between atoms: _79  and  _81
REMARK   37  A    between atoms: _81  and  _82
REMARK   38  A    between atoms: _81  and  _84
REMARK   39  A    between atoms: _84  and  _85
REMARK   40  A    between atoms: _88  and  _90
REMARK   41  A    between atoms: _90  and  _91
REMARK   42  A    between atoms: _90  and  _93
REMARK   43  A    between atoms: _93  and  _94
REMARK   44  A    between atoms: _94  and  _95
REMARK   45  A    between atoms: _95  and  _96
REMARK   46  A    between atoms: _106  and  _107
REMARK   47  A    between atoms: _113  and  _114
REMARK   48  A    between atoms: _119  and  _121
REMARK   49  A    between atoms: _121  and  _122
REMARK   50  A    between atoms: _121  and  _124
REMARK   51  A    between atoms: _124  and  _125
REMARK   52  A    between atoms: _130  and  _132
REMARK   53  A    between atoms: _132  and  _133
REMARK   54  A    between atoms: _135  and  _137
REMARK   55  A    between atoms: _137  and  _138
REMARK   56  A    between atoms: _137  and  _140
REMARK   57  A    between atoms: _140  and  _141
REMARK   58  A    between atoms: _143  and  _145
REMARK   59  A    between atoms: _145  and  _146
REMARK   60  A    between atoms: _145  and  _148
REMARK   61  A    between atoms: _148  and  _149
REMARK   62  A    between atoms: _152  and  _154
REMARK   63  A    between atoms: _154  and  _155
REMARK   64  A    between atoms: _154  and  _157
REMARK   65  A    between atoms: _157  and  _158
REMARK   66  A    between atoms: _163  and  _165
REMARK   67  A    between atoms: _165  and  _166
REMARK   68  A    between atoms: _169  and  _171
REMARK   69  A    between atoms: _171  and  _172
REMARK   70  A    between atoms: _171  and  _174
REMARK   71  A    between atoms: _174  and  _175
REMARK   72  A    between atoms: _178  and  _179
REMARK   73  A    between atoms: _184  and  _186
REMARK   74  A    between atoms: _186  and  _187
REMARK   75  A    between atoms: _189  and  _191
REMARK   76  A    between atoms: _191  and  _192
REMARK   77  A    between atoms: _191  and  _194
REMARK   78  A    between atoms: _194  and  _195
REMARK   79  A    between atoms: _198  and  _200
REMARK   80  A    between atoms: _200  and  _201
REMARK   81  A    between atoms: _204  and  _206
REMARK   82  A    between atoms: _206  and  _207
REMARK   83  A    between atoms: _206  and  _209
REMARK   84  A    between atoms: _209  and  _210
REMARK   85  A    between atoms: _215  and  _217
REMARK   86  A    between atoms: _217  and  _218
REMARK   87  A    between atoms: _217  and  _220
REMARK   88  A    between atoms: _220  and  _221
REMARK   89  A    between atoms: _223  and  _225
REMARK   90  A    between atoms: _225  and  _226
REMARK   91  A    between atoms: _225  and  _228
REMARK   92  A    between atoms: _228  and  _229
REMARK   93  A    between atoms: _229  and  _230
REMARK   94  A    between atoms: _230  and  _231
REMARK   95  A    between atoms: _231  and  _232
REMARK   96  A    between atoms: _236  and  _238
REMARK   97  A    between atoms: _238  and  _239
REMARK   98  A    between atoms: _238  and  _241
REMARK   99  A    between atoms: _241  and  _242
REMARK  100  A    between atoms: _247  and  _249
REMARK  101  A    between atoms: _249  and  _250
REMARK  102  A    between atoms: _249  and  _252
REMARK  103  A    between atoms: _252  and  _253
REMARK  104  A    between atoms: _255  and  _257
REMARK  105  A    between atoms: _257  and  _258
REMARK  106  A    between atoms: _257  and  _260
REMARK  107  A    between atoms: _260  and  _261
REMARK  108  A    between atoms: _263  and  _265
REMARK  109  A    between atoms: _265  and  _266
REMARK  110  A    between atoms: _265  and  _268
REMARK  111  A    between atoms: _268  and  _269
REMARK  112  A    between atoms: _275  and  _277
REMARK  113  A    between atoms: _277  and  _278
REMARK  114  A    between atoms: _277  and  _280
REMARK  115  A    between atoms: _280  and  _281
REMARK  116  A    between atoms: _281  and  _282
REMARK  117  A    between atoms: _287  and  _289
REMARK  118  A    between atoms: _289  and  _290
REMARK  119  A    between atoms: _289  and  _292
REMARK  120  A    between atoms: _292  and  _293
REMARK  121  A    between atoms: _296  and  _298
REMARK  122  A    between atoms: _298  and  _299
REMARK  123  A    between atoms: _298  and  _301
REMARK  124  A    between atoms: _301  and  _302
REMARK  125  A    between atoms: _307  and  _309
REMARK  126  A    between atoms: _309  and  _310
REMARK  127  A    between atoms: _309  and  _312
REMARK  128  A    between atoms: _312  and  _313
REMARK  129  A    between atoms: _313  and  _314
REMARK  130  A    between atoms: _316  and  _318
REMARK  131  A    between atoms: _318  and  _319
REMARK  132  A    between atoms: _318  and  _321
REMARK  133  A    between atoms: _321  and  _322
REMARK  134  A    between atoms: _325  and  _327
REMARK  135  A    between atoms: _327  and  _328
REMARK  136  A    between atoms: _327  and  _330
REMARK  137  A    between atoms: _330  and  _331
REMARK  138  A    between atoms: _331  and  _332
REMARK  139  A    between atoms: _332  and  _333
REMARK  140  A    between atoms: _342  and  _344
REMARK  141  A    between atoms: _344  and  _345
REMARK  142  A    between atoms: _344  and  _347
REMARK  143  A    between atoms: _347  and  _348
REMARK  144  A    between atoms: _353  and  _354
REMARK  145  A    between atoms: _356  and  _358
REMARK  146  A    between atoms: _358  and  _359
REMARK  147  A    between atoms: _358  and  _365
REMARK  148  A    between atoms: _359  and  _360
REMARK  149  A    between atoms: _360  and  _361
REMARK  150  A    between atoms: _361  and  _362
REMARK  151  A    between atoms: _362  and  _363
REMARK  152  A    between atoms: _370  and  _372
REMARK  153  A    between atoms: _372  and  _373
REMARK  154  A    between atoms: _372  and  _375
REMARK  155  A    between atoms: _375  and  _376
REMARK  156  A    between atoms: _378  and  _380
REMARK  157  A    between atoms: _380  and  _381
REMARK  158  A    between atoms: _380  and  _383
REMARK  159  A    between atoms: _383  and  _384
REMARK  160  A    between atoms: _384  and  _385
REMARK  161  A    between atoms: _385  and  _386
REMARK  162  A    between atoms: _386  and  _387
REMARK  163  A    between atoms: _391  and  _393
REMARK  164  A    between atoms: _393  and  _394
REMARK  165  A    between atoms: _397  and  _399
REMARK  166  A    between atoms: _399  and  _400
REMARK  167  A    between atoms: _399  and  _402
REMARK  168  A    between atoms: _402  and  _403
REMARK  169  A    between atoms: _406  and  _408
REMARK  170  A    between atoms: _408  and  _409
REMARK  171  A    between atoms: _408  and  _411
REMARK  172  A    between atoms: _411  and  _412
REMARK  173  A    between atoms: _417  and  _419
REMARK  174  A    between atoms: _419  and  _420
REMARK  175  A    between atoms: _419  and  _422
REMARK  176  A    between atoms: _422  and  _423
REMARK  177  A    between atoms: _426  and  _428
REMARK  178  A    between atoms: _428  and  _429
REMARK  179  A    between atoms: _431  and  _433
REMARK  180  A    between atoms: _433  and  _434
REMARK  181  A    between atoms: _433  and  _436
REMARK  182  A    between atoms: _436  and  _437
REMARK  183  A    between atoms: _437  and  _438
REMARK  184  A    between atoms: _438  and  _439
REMARK  185  A    between atoms: _439  and  _440
REMARK  186  A    between atoms: _444  and  _446
REMARK  187  A    between atoms: _446  and  _447
REMARK  188  A    between atoms: _450  and  _452
REMARK  189  A    between atoms: _452  and  _453
REMARK  190  A    between atoms: _452  and  _455
REMARK  191  A    between atoms: _457  and  _459
REMARK  192  A    between atoms: _459  and  _460
REMARK  193  A    between atoms: _463  and  _465
REMARK  194  A    between atoms: _465  and  _466
REMARK  195  A    between atoms: _465  and  _468
REMARK  196  A    between atoms: _468  and  _469
REMARK  197  A    between atoms: _471  and  _473
REMARK  198  A    between atoms: _473  and  _474
REMARK  199  A    between atoms: _473  and  _476
REMARK  200  A    between atoms: _476  and  _477
REMARK  201  A    between atoms: _480  and  _482
REMARK  202  A    between atoms: _482  and  _483
REMARK  203  A    between atoms: _482  and  _485
REMARK  204  A    between atoms: _485  and  _486
REMARK  205  A    between atoms: _489  and  _491
REMARK  206  A    between atoms: _491  and  _492
REMARK  207  A    between atoms: _491  and  _494
REMARK  208  A    between atoms: _494  and  _495
REMARK  209  A    between atoms: _495  and  _496
REMARK  210  A    between atoms: _501  and  _503
REMARK  211  A    between atoms: _503  and  _504
REMARK  212  A    between atoms: _503  and  _506
REMARK  213  A    between atoms: _506  and  _507
REMARK  214  A    between atoms: _513  and  _515
REMARK  215  A    between atoms: _515  and  _516
REMARK  216  A    between atoms: _515  and  _518
REMARK  217  A    between atoms: _518  and  _519
REMARK  218  A    between atoms: _519  and  _520
REMARK  219  A    between atoms: _520  and  _521
REMARK  220  A    between atoms: _521  and  _522
REMARK  221  A    between atoms: _526  and  _528
REMARK  222  A    between atoms: _528  and  _529
REMARK  223  A    between atoms: _528  and  _531
REMARK  224  A    between atoms: _531  and  _532
REMARK  225  A    between atoms: _537  and  _539
REMARK  226  A    between atoms: _539  and  _540
REMARK  227  A    between atoms: _539  and  _542
REMARK  228  A    between atoms: _542  and  _543
REMARK  229  A    between atoms: _549  and  _551
REMARK  230  A    between atoms: _551  and  _552
REMARK  231  A    between atoms: _551  and  _554
REMARK  232  A    between atoms: _554  and  _555
REMARK  233  A    between atoms: _555  and  _556
REMARK  234  A    between atoms: _559  and  _561
REMARK  235  A    between atoms: _561  and  _562
REMARK  236  A    between atoms: _561  and  _564
REMARK  237  A    between atoms: _564  and  _565
REMARK  238  A    between atoms: _565  and  _566
REMARK  239  A    between atoms: _571  and  _573
REMARK  240  A    between atoms: _573  and  _574
REMARK  241  A    between atoms: _573  and  _576
REMARK  242  A    between atoms: _576  and  _577
REMARK  243  A    between atoms: _577  and  _578
REMARK  244  A    between atoms: _578  and  _579
REMARK  245  A    between atoms: _588  and  _590
REMARK  246  A    between atoms: _590  and  _591
REMARK                            x       y       z     vdW  Elec       q    Type
REMARK                         _______ _______ _______ _____ _____    ______ ____
ROOT
ATOM      1  O   HOH     1       6.673  33.409  51.513  0.00  0.00    +0.000 OA
ENDROOT
TORSDOF 0
REMARK  Name = ../refined-set-2016/2xpc/2xpc_pocket.pdb
REMARK  246 active torsions:
REMARK  status: ('A' for Active; 'I' for Inactive)
REMARK    1  A    between atoms: _1  and  _3
REMARK    2  A    between atoms: _3  and  _4
REMARK    3  A    between atoms: _3  and  _6
REMARK    4  A    between atoms: _6  and  _7
REMARK    5  A    between atoms: _10  and  _12
REMARK    6  A    between atoms: _12  and  _13
REMARK    7  A    between atoms: _12  and  _15
REMARK    8  A    between atoms: _15  and  _16
REMARK    9  A    between atoms: _19  and  _21
REMARK   10  A    between atoms: _21  and  _22
REMARK   11  A    between atoms: _24  and  _26
REMARK   12  A    between atoms: _26  and  _27
REMARK   13  A    between atoms: _26  and  _29
REMARK   14  A    between atoms: _29  and  _30
REMARK   15  A    between atoms: _33  and  _35
REMARK   16  A    between atoms: _35  and  _36
REMARK   17  A    between atoms: _38  and  _40
REMARK   18  A    between atoms: _40  and  _41
REMARK   19  A    between atoms: _40  and  _43
REMARK   20  A    between atoms: _43  and  _44
REMARK   21  A    between atoms: _47  and  _49
REMARK   22  A    between atoms: _49  and  _50
REMARK   23  A    between atoms: _49  and  _52
REMARK   24  A    between atoms: _52  and  _53
REMARK   25  A    between atoms: _56  and  _58
REMARK   26  A    between atoms: _58  and  _59
REMARK   27  A    between atoms: _61  and  _63
REMARK   28  A    between atoms: _63  and  _64
REMARK   29  A    between atoms: _63  and  _66
REMARK   30  A    between atoms: _66  and  _67
REMARK   31  A    between atoms: _67  and  _68
REMARK   32  A    between atoms: _70  and  _72
REMARK   33  A    between atoms: _72  and  _73
REMARK   34  A    between atoms: _72  and  _75
REMARK   35  A    between atoms: _75  and  _76
REMARK   36  A    between atoms: _79  and  _81
REMARK   37  A    between atoms: _81  and  _82
REMARK   38  A    between atoms: _81  and  _84
REMARK   39  A    between atoms: _84  and  _85
REMARK   40  A    between atoms: _88  and  _90
REMARK   41  A    between atoms: _90  and  _91
REMARK   42  A    between atoms: _90  and  _93
REMARK   43  A    between atoms: _93  and  _94
REMARK   44  A    between atoms: _94  and  _95
REMARK   45  A    between atoms: _95  and  _96
REMARK   46  A    between atoms: _106  and  _107
REMARK   47  A    between atoms: _113  and  _114
REMARK   48  A    between atoms: _119  and  _121
REMARK   49  A    between atoms: _121  and  _122
REMARK   50  A    between atoms: _121  and  _124
REMARK   51  A    between atoms: _124  and  _125
REMARK   52  A    between atoms: _130  and  _132
REMARK   53  A    between atoms: _132  and  _133
REMARK   54  A    between atoms: _135  and  _137
REMARK   55  A    between atoms: _137  and  _138
REMARK   56  A    between atoms: _137  and  _140
REMARK   57  A    between atoms: _140  and  _141
REMARK   58  A    between atoms: _143  and  _145
REMARK   59  A    between atoms: _145  and  _146
REMARK   60  A    between atoms: _145  and  _148
REMARK   61  A    between atoms: _148  and  _149
REMARK   62  A    between atoms: _152  and  _154
REMARK   63  A    between atoms: _154  and  _155
REMARK   64  A    between atoms: _154  and  _157
REMARK   65  A    between atoms: _157  and  _158
REMARK   66  A    between atoms: _163  and  _165
REMARK   67  A    between atoms: _165  and  _166
REMARK   68  A    between atoms: _169  and  _171
REMARK   69  A    between atoms: _171  and  _172
REMARK   70  A    between atoms: _171  and  _174
REMARK   71  A    between atoms: _174  and  _175
REMARK   72  A    between atoms: _178  and  _179
REMARK   73  A    between atoms: _184  and  _186
REMARK   74  A    between atoms: _186  and  _187
REMARK   75  A    between atoms: _189  and  _191
REMARK   76  A    between atoms: _191  and  _192
REMARK   77  A    between atoms: _191  and  _194
REMARK   78  A    between atoms: _194  and  _195
REMARK   79  A    between atoms: _198  and  _200
REMARK   80  A    between atoms: _200  and  _201
REMARK   81  A    between atoms: _204  and  _206
REMARK   82  A    between atoms: _206  and  _207
REMARK   83  A    between atoms: _206  and  _209
REMARK   84  A    between atoms: _209  and  _210
REMARK   85  A    between atoms: _215  and  _217
REMARK   86  A    between atoms: _217  and  _218
REMARK   87  A    between atoms: _217  and  _220
REMARK   88  A    between atoms: _220  and  _221
REMARK   89  A    between atoms: _223  and  _225
REMARK   90  A    between atoms: _225  and  _226
REMARK   91  A    between atoms: _225  and  _228
REMARK   92  A    between atoms: _228  and  _229
REMARK   93  A    between atoms: _229  and  _230
REMARK   94  A    between atoms: _230  and  _231
REMARK   95  A    between atoms: _231  and  _232
REMARK   96  A    between atoms: _236  and  _238
REMARK   97  A    between atoms: _238  and  _239
REMARK   98  A    between atoms: _238  and  _241
REMARK   99  A    between atoms: _241  and  _242
REMARK  100  A    between atoms: _247  and  _249
REMARK  101  A    between atoms: _249  and  _250
REMARK  102  A    between atoms: _249  and  _252
REMARK  103  A    between atoms: _252  and  _253
REMARK  104  A    between atoms: _255  and  _257
REMARK  105  A    between atoms: _257  and  _258
REMARK  106  A    between atoms: _257  and  _260
REMARK  107  A    between atoms: _260  and  _261
REMARK  108  A    between atoms: _263  and  _265
REMARK  109  A    between atoms: _265  and  _266
REMARK  110  A    between atoms: _265  and  _268
REMARK  111  A    between atoms: _268  and  _269
REMARK  112  A    between atoms: _275  and  _277
REMARK  113  A    between atoms: _277  and  _278
REMARK  114  A    between atoms: _277  and  _280
REMARK  115  A    between atoms: _280  and  _281
REMARK  116  A    between atoms: _281  and  _282
REMARK  117  A    between atoms: _287  and  _289
REMARK  118  A    between atoms: _289  and  _290
REMARK  119  A    between atoms: _289  and  _292
REMARK  120  A    between atoms: _292  and  _293
REMARK  121  A    between atoms: _296  and  _298
REMARK  122  A    between atoms: _298  and  _299
REMARK  123  A    between atoms: _298  and  _301
REMARK  124  A    between atoms: _301  and  _302
REMARK  125  A    between atoms: _307  and  _309
REMARK  126  A    between atoms: _309  and  _310
REMARK  127  A    between atoms: _309  and  _312
REMARK  128  A    between atoms: _312  and  _313
REMARK  129  A    between atoms: _313  and  _314
REMARK  130  A    between atoms: _316  and  _318
REMARK  131  A    between atoms: _318  and  _319
REMARK  132  A    between atoms: _318  and  _321
REMARK  133  A    between atoms: _321  and  _322
REMARK  134  A    between atoms: _325  and  _327
REMARK  135  A    between atoms: _327  and  _328
REMARK  136  A    between atoms: _327  and  _330
REMARK  137  A    between atoms: _330  and  _331
REMARK  138  A    between atoms: _331  and  _332
REMARK  139  A    between atoms: _332  and  _333
REMARK  140  A    between atoms: _342  and  _344
REMARK  141  A    between atoms: _344  and  _345
REMARK  142  A    between atoms: _344  and  _347
REMARK  143  A    between atoms: _347  and  _348
REMARK  144  A    between atoms: _353  and  _354
REMARK  145  A    between atoms: _356  and  _358
REMARK  146  A    between atoms: _358  and  _359
REMARK  147  A    between atoms: _358  and  _365
REMARK  148  A    between atoms: _359  and  _360
REMARK  149  A    between atoms: _360  and  _361
REMARK  150  A    between atoms: _361  and  _362
REMARK  151  A    between atoms: _362  and  _363
REMARK  152  A    between atoms: _370  and  _372
REMARK  153  A    between atoms: _372  and  _373
REMARK  154  A    between atoms: _372  and  _375
REMARK  155  A    between atoms: _375  and  _376
REMARK  156  A    between atoms: _378  and  _380
REMARK  157  A    between atoms: _380  and  _381
REMARK  158  A    between atoms: _380  and  _383
REMARK  159  A    between atoms: _383  and  _384
REMARK  160  A    between atoms: _384  and  _385
REMARK  161  A    between atoms: _385  and  _386
REMARK  162  A    between atoms: _386  and  _387
REMARK  163  A    between atoms: _391  and  _393
REMARK  164  A    between atoms: _393  and  _394
REMARK  165  A    between atoms: _397  and  _399
REMARK  166  A    between atoms: _399  and  _400
REMARK  167  A    between atoms: _399  and  _402
REMARK  168  A    between atoms: _402  and  _403
REMARK  169  A    between atoms: _406  and  _408
REMARK  170  A    between atoms: _408  and  _409
REMARK  171  A    between atoms: _408  and  _411
REMARK  172  A    between atoms: _411  and  _412
REMARK  173  A    between atoms: _417  and  _419
REMARK  174  A    between atoms: _419  and  _420
REMARK  175  A    between atoms: _419  and  _422
REMARK  176  A    between atoms: _422  and  _423
REMARK  177  A    between atoms: _426  and  _428
REMARK  178  A    between atoms: _428  and  _429
REMARK  179  A    between atoms: _431  and  _433
REMARK  180  A    between atoms: _433  and  _434
REMARK  181  A    between atoms: _433  and  _436
REMARK  182  A    between atoms: _436  and  _437
REMARK  183  A    between atoms: _437  and  _438
REMARK  184  A    between atoms: _438  and  _439
REMARK  185  A    between atoms: _439  and  _440
REMARK  186  A    between atoms: _444  and  _446
REMARK  187  A    between atoms: _446  and  _447
REMARK  188  A    between atoms: _450  and  _452
REMARK  189  A    between atoms: _452  and  _453
REMARK  190  A    between atoms: _452  and  _455
REMARK  191  A    between atoms: _457  and  _459
REMARK  192  A    between atoms: _459  and  _460
REMARK  193  A    between atoms: _463  and  _465
REMARK  194  A    between atoms: _465  and  _466
REMARK  195  A    between atoms: _465  and  _468
REMARK  196  A    between atoms: _468  and  _469
REMARK  197  A    between atoms: _471  and  _473
REMARK  198  A    between atoms: _473  and  _474
REMARK  199  A    between atoms: _473  and  _476
REMARK  200  A    between atoms: _476  and  _477
REMARK  201  A    between atoms: _480  and  _482
REMARK  202  A    between atoms: _482  and  _483
REMARK  203  A    between atoms: _482  and  _485
REMARK  204  A    between atoms: _485  and  _486
REMARK  205  A    between atoms: _489  and  _491
REMARK  206  A    between atoms: _491  and  _492
REMARK  207  A    between atoms: _491  and  _494
REMARK  208  A    between atoms: _494  and  _495
REMARK  209  A    between atoms: _495  and  _496
REMARK  210  A    between atoms: _501  and  _503
REMARK  211  A    between atoms: _503  and  _504
REMARK  212  A    between atoms: _503  and  _506
REMARK  213  A    between atoms: _506  and  _507
REMARK  214  A    between atoms: _513  and  _515
REMARK  215  A    between atoms: _515  and  _516
REMARK  216  A    between atoms: _515  and  _518
REMARK  217  A    between atoms: _518  and  _519
REMARK  218  A    between atoms: _519  and  _520
REMARK  219  A    between atoms: _520  and  _521
REMARK  220  A    between atoms: _521  and  _522
REMARK  221  A    between atoms: _526  and  _528
REMARK  222  A    between atoms: _528  and  _529
REMARK  223  A    between atoms: _528  and  _531
REMARK  224  A    between atoms: _531  and  _532
REMARK  225  A    between atoms: _537  and  _539
REMARK  226  A    between atoms: _539  and  _540
REMARK  227  A    between atoms: _539  and  _542
REMARK  228  A    between atoms: _542  and  _543
REMARK  229  A    between atoms: _549  and  _551
REMARK  230  A    between atoms: _551  and  _552
REMARK  231  A    between atoms: _551  and  _554
REMARK  232  A    between atoms: _554  and  _555
REMARK  233  A    between atoms: _555  and  _556
REMARK  234  A    between atoms: _559  and  _561
REMARK  235  A    between atoms: _561  and  _562
REMARK  236  A    between atoms: _561  and  _564
REMARK  237  A    between atoms: _564  and  _565
REMARK  238  A    between atoms: _565  and  _566
REMARK  239  A    between atoms: _571  and  _573
REMARK  240  A    between atoms: _573  and  _574
REMARK  241  A    between atoms: _573  and  _576
REMARK  242  A    between atoms: _576  and  _577
REMARK  243  A    between atoms: _577  and  _578
REMARK  244  A    between atoms: _578  and  _579
REMARK  245  A    between atoms: _588  and  _590
REMARK  246  A    between atoms: _590  and  _591
REMARK                            x       y       z     vdW  Elec       q    Type
REMARK                         _______ _______ _______ _____ _____    ______ ____
ROOT
ATOM      1  O   HOH     1      10.876  26.155  51.587  0.00  0.00    +0.000 OA
ENDROOT
TORSDOF 0
REMARK  Name = ../refined-set-2016/2xpc/2xpc_pocket.pdb
REMARK  246 active torsions:
REMARK  status: ('A' for Active; 'I' for Inactive)
REMARK    1  A    between atoms: _1  and  _3
REMARK    2  A    between atoms: _3  and  _4
REMARK    3  A    between atoms: _3  and  _6
REMARK    4  A    between atoms: _6  and  _7
REMARK    5  A    between atoms: _10  and  _12
REMARK    6  A    between atoms: _12  and  _13
REMARK    7  A    between atoms: _12  and  _15
REMARK    8  A    between atoms: _15  and  _16
REMARK    9  A    between atoms: _19  and  _21
REMARK   10  A    between atoms: _21  and  _22
REMARK   11  A    between atoms: _24  and  _26
REMARK   12  A    between atoms: _26  and  _27
REMARK   13  A    between atoms: _26  and  _29
REMARK   14  A    between atoms: _29  and  _30
REMARK   15  A    between atoms: _33  and  _35
REMARK   16  A    between atoms: _35  and  _36
REMARK   17  A    between atoms: _38  and  _40
REMARK   18  A    between atoms: _40  and  _41
REMARK   19  A    between atoms: _40  and  _43
REMARK   20  A    between atoms: _43  and  _44
REMARK   21  A    between atoms: _47  and  _49
REMARK   22  A    between atoms: _49  and  _50
REMARK   23  A    between atoms: _49  and  _52
REMARK   24  A    between atoms: _52  and  _53
REMARK   25  A    between atoms: _56  and  _58
REMARK   26  A    between atoms: _58  and  _59
REMARK   27  A    between atoms: _61  and  _63
REMARK   28  A    between atoms: _63  and  _64
REMARK   29  A    between atoms: _63  and  _66
REMARK   30  A    between atoms: _66  and  _67
REMARK   31  A    between atoms: _67  and  _68
REMARK   32  A    between atoms: _70  and  _72
REMARK   33  A    between atoms: _72  and  _73
REMARK   34  A    between atoms: _72  and  _75
REMARK   35  A    between atoms: _75  and  _76
REMARK   36  A    between atoms: _79  and  _81
REMARK   37  A    between atoms: _81  and  _82
REMARK   38  A    between atoms: _81  and  _84
REMARK   39  A    between atoms: _84  and  _85
REMARK   40  A    between atoms: _88  and  _90
REMARK   41  A    between atoms: _90  and  _91
REMARK   42  A    between atoms: _90  and  _93
REMARK   43  A    between atoms: _93  and  _94
REMARK   44  A    between atoms: _94  and  _95
REMARK   45  A    between atoms: _95  and  _96
REMARK   46  A    between atoms: _106  and  _107
REMARK   47  A    between atoms: _113  and  _114
REMARK   48  A    between atoms: _119  and  _121
REMARK   49  A    between atoms: _121  and  _122
REMARK   50  A    between atoms: _121  and  _124
REMARK   51  A    between atoms: _124  and  _125
REMARK   52  A    between atoms: _130  and  _132
REMARK   53  A    between atoms: _132  and  _133
REMARK   54  A    between atoms: _135  and  _137
REMARK   55  A    between atoms: _137  and  _138
REMARK   56  A    between atoms: _137  and  _140
REMARK   57  A    between atoms: _140  and  _141
REMARK   58  A    between atoms: _143  and  _145
REMARK   59  A    between atoms: _145  and  _146
REMARK   60  A    between atoms: _145  and  _148
REMARK   61  A    between atoms: _148  and  _149
REMARK   62  A    between atoms: _152  and  _154
REMARK   63  A    between atoms: _154  and  _155
REMARK   64  A    between atoms: _154  and  _157
REMARK   65  A    between atoms: _157  and  _158
REMARK   66  A    between atoms: _163  and  _165
REMARK   67  A    between atoms: _165  and  _166
REMARK   68  A    between atoms: _169  and  _171
REMARK   69  A    between atoms: _171  and  _172
REMARK   70  A    between atoms: _171  and  _174
REMARK   71  A    between atoms: _174  and  _175
REMARK   72  A    between atoms: _178  and  _179
REMARK   73  A    between atoms: _184  and  _186
REMARK   74  A    between atoms: _186  and  _187
REMARK   75  A    between atoms: _189  and  _191
REMARK   76  A    between atoms: _191  and  _192
REMARK   77  A    between atoms: _191  and  _194
REMARK   78  A    between atoms: _194  and  _195
REMARK   79  A    between atoms: _198  and  _200
REMARK   80  A    between atoms: _200  and  _201
REMARK   81  A    between atoms: _204  and  _206
REMARK   82  A    between atoms: _206  and  _207
REMARK   83  A    between atoms: _206  and  _209
REMARK   84  A    between atoms: _209  and  _210
REMARK   85  A    between atoms: _215  and  _217
REMARK   86  A    between atoms: _217  and  _218
REMARK   87  A    between atoms: _217  and  _220
REMARK   88  A    between atoms: _220  and  _221
REMARK   89  A    between atoms: _223  and  _225
REMARK   90  A    between atoms: _225  and  _226
REMARK   91  A    between atoms: _225  and  _228
REMARK   92  A    between atoms: _228  and  _229
REMARK   93  A    between atoms: _229  and  _230
REMARK   94  A    between atoms: _230  and  _231
REMARK   95  A    between atoms: _231  and  _232
REMARK   96  A    between atoms: _236  and  _238
REMARK   97  A    between atoms: _238  and  _239
REMARK   98  A    between atoms: _238  and  _241
REMARK   99  A    between atoms: _241  and  _242
REMARK  100  A    between atoms: _247  and  _249
REMARK  101  A    between atoms: _249  and  _250
REMARK  102  A    between atoms: _249  and  _252
REMARK  103  A    between atoms: _252  and  _253
REMARK  104  A    between atoms: _255  and  _257
REMARK  105  A    between atoms: _257  and  _258
REMARK  106  A    between atoms: _257  and  _260
REMARK  107  A    between atoms: _260  and  _261
REMARK  108  A    between atoms: _263  and  _265
REMARK  109  A    between atoms: _265  and  _266
REMARK  110  A    between atoms: _265  and  _268
REMARK  111  A    between atoms: _268  and  _269
REMARK  112  A    between atoms: _275  and  _277
REMARK  113  A    between atoms: _277  and  _278
REMARK  114  A    between atoms: _277  and  _280
REMARK  115  A    between atoms: _280  and  _281
REMARK  116  A    between atoms: _281  and  _282
REMARK  117  A    between atoms: _287  and  _289
REMARK  118  A    between atoms: _289  and  _290
REMARK  119  A    between atoms: _289  and  _292
REMARK  120  A    between atoms: _292  and  _293
REMARK  121  A    between atoms: _296  and  _298
REMARK  122  A    between atoms: _298  and  _299
REMARK  123  A    between atoms: _298  and  _301
REMARK  124  A    between atoms: _301  and  _302
REMARK  125  A    between atoms: _307  and  _309
REMARK  126  A    between atoms: _309  and  _310
REMARK  127  A    between atoms: _309  and  _312
REMARK  128  A    between atoms: _312  and  _313
REMARK  129  A    between atoms: _313  and  _314
REMARK  130  A    between atoms: _316  and  _318
REMARK  131  A    between atoms: _318  and  _319
REMARK  132  A    between atoms: _318  and  _321
REMARK  133  A    between atoms: _321  and  _322
REMARK  134  A    between atoms: _325  and  _327
REMARK  135  A    between atoms: _327  and  _328
REMARK  136  A    between atoms: _327  and  _330
REMARK  137  A    between atoms: _330  and  _331
REMARK  138  A    between atoms: _331  and  _332
REMARK  139  A    between atoms: _332  and  _333
REMARK  140  A    between atoms: _342  and  _344
REMARK  141  A    between atoms: _344  and  _345
REMARK  142  A    between atoms: _344  and  _347
REMARK  143  A    between atoms: _347  and  _348
REMARK  144  A    between atoms: _353  and  _354
REMARK  145  A    between atoms: _356  and  _358
REMARK  146  A    between atoms: _358  and  _359
REMARK  147  A    between atoms: _358  and  _365
REMARK  148  A    between atoms: _359  and  _360
REMARK  149  A    between atoms: _360  and  _361
REMARK  150  A    between atoms: _361  and  _362
REMARK  151  A    between atoms: _362  and  _363
REMARK  152  A    between atoms: _370  and  _372
REMARK  153  A    between atoms: _372  and  _373
REMARK  154  A    between atoms: _372  and  _375
REMARK  155  A    between atoms: _375  and  _376
REMARK  156  A    between atoms: _378  and  _380
REMARK  157  A    between atoms: _380  and  _381
REMARK  158  A    between atoms: _380  and  _383
REMARK  159  A    between atoms: _383  and  _384
REMARK  160  A    between atoms: _384  and  _385
REMARK  161  A    between atoms: _385  and  _386
REMARK  162  A    between atoms: _386  and  _387
REMARK  163  A    between atoms: _391  and  _393
REMARK  164  A    between atoms: _393  and  _394
REMARK  165  A    between atoms: _397  and  _399
REMARK  166  A    between atoms: _399  and  _400
REMARK  167  A    between atoms: _399  and  _402
REMARK  168  A    between atoms: _402  and  _403
REMARK  169  A    between atoms: _406  and  _408
REMARK  170  A    between atoms: _408  and  _409
REMARK  171  A    between atoms: _408  and  _411
REMARK  172  A    between atoms: _411  and  _412
REMARK  173  A    between atoms: _417  and  _419
REMARK  174  A    between atoms: _419  and  _420
REMARK  175  A    between atoms: _419  and  _422
REMARK  176  A    between atoms: _422  and  _423
REMARK  177  A    between atoms: _426  and  _428
REMARK  178  A    between atoms: _428  and  _429
REMARK  179  A    between atoms: _431  and  _433
REMARK  180  A    between atoms: _433  and  _434
REMARK  181  A    between atoms: _433  and  _436
REMARK  182  A    between atoms: _436  and  _437
REMARK  183  A    between atoms: _437  and  _438
REMARK  184  A    between atoms: _438  and  _439
REMARK  185  A    between atoms: _439  and  _440
REMARK  186  A    between atoms: _444  and  _446
REMARK  187  A    between atoms: _446  and  _447
REMARK  188  A    between atoms: _450  and  _452
REMARK  189  A    between atoms: _452  and  _453
REMARK  190  A    between atoms: _452  and  _455
REMARK  191  A    between atoms: _457  and  _459
REMARK  192  A    between atoms: _459  and  _460
REMARK  193  A    between atoms: _463  and  _465
REMARK  194  A    between atoms: _465  and  _466
REMARK  195  A    between atoms: _465  and  _468
REMARK  196  A    between atoms: _468  and  _469
REMARK  197  A    between atoms: _471  and  _473
REMARK  198  A    between atoms: _473  and  _474
REMARK  199  A    between atoms: _473  and  _476
REMARK  200  A    between atoms: _476  and  _477
REMARK  201  A    between atoms: _480  and  _482
REMARK  202  A    between atoms: _482  and  _483
REMARK  203  A    between atoms: _482  and  _485
REMARK  204  A    between atoms: _485  and  _486
REMARK  205  A    between atoms: _489  and  _491
REMARK  206  A    between atoms: _491  and  _492
REMARK  207  A    between atoms: _491  and  _494
REMARK  208  A    between atoms: _494  and  _495
REMARK  209  A    between atoms: _495  and  _496
REMARK  210  A    between atoms: _501  and  _503
REMARK  211  A    between atoms: _503  and  _504
REMARK  212  A    between atoms: _503  and  _506
REMARK  213  A    between atoms: _506  and  _507
REMARK  214  A    between atoms: _513  and  _515
REMARK  215  A    between atoms: _515  and  _516
REMARK  216  A    between atoms: _515  and  _518
REMARK  217  A    between atoms: _518  and  _519
REMARK  218  A    between atoms: _519  and  _520
REMARK  219  A    between atoms: _520  and  _521
REMARK  220  A    between atoms: _521  and  _522
REMARK  221  A    between atoms: _526  and  _528
REMARK  222  A    between atoms: _528  and  _529
REMARK  223  A    between atoms: _528  and  _531
REMARK  224  A    between atoms: _531  and  _532
REMARK  225  A    between atoms: _537  and  _539
REMARK  226  A    between atoms: _539  and  _540
REMARK  227  A    between atoms: _539  and  _542
REMARK  228  A    between atoms: _542  and  _543
REMARK  229  A    between atoms: _549  and  _551
REMARK  230  A    between atoms: _551  and  _552
REMARK  231  A    between atoms: _551  and  _554
REMARK  232  A    between atoms: _554  and  _555
REMARK  233  A    between atoms: _555  and  _556
REMARK  234  A    between atoms: _559  and  _561
REMARK  235  A    between atoms: _561  and  _562
REMARK  236  A    between atoms: _561  and  _564
REMARK  237  A    between atoms: _564  and  _565
REMARK  238  A    between atoms: _565  and  _566
REMARK  239  A    between atoms: _571  and  _573
REMARK  240  A    between atoms: _573  and  _574
REMARK  241  A    between atoms: _573  and  _576
REMARK  242  A    between atoms: _576  and  _577
REMARK  243  A    between atoms: _577  and  _578
REMARK  244  A    between atoms: _578  and  _579
REMARK  245  A    between atoms: _588  and  _590
REMARK  246  A    between atoms: _590  and  _591
REMARK                            x       y       z     vdW  Elec       q    Type
REMARK                         _______ _______ _______ _____ _____    ______ ____
ROOT
ATOM      1  O   HOH     1      17.339  27.091  43.383  0.00  0.00    +0.000 OA
ENDROOT
TORSDOF 0
REMARK  Name = ../refined-set-2016/2xpc/2xpc_pocket.pdb
REMARK  246 active torsions:
REMARK  status: ('A' for Active; 'I' for Inactive)
REMARK    1  A    between atoms: _1  and  _3
REMARK    2  A    between atoms: _3  and  _4
REMARK    3  A    between atoms: _3  and  _6
REMARK    4  A    between atoms: _6  and  _7
REMARK    5  A    between atoms: _10  and  _12
REMARK    6  A    between atoms: _12  and  _13
REMARK    7  A    between atoms: _12  and  _15
REMARK    8  A    between atoms: _15  and  _16
REMARK    9  A    between atoms: _19  and  _21
REMARK   10  A    between atoms: _21  and  _22
REMARK   11  A    between atoms: _24  and  _26
REMARK   12  A    between atoms: _26  and  _27
REMARK   13  A    between atoms: _26  and  _29
REMARK   14  A    between atoms: _29  and  _30
REMARK   15  A    between atoms: _33  and  _35
REMARK   16  A    between atoms: _35  and  _36
REMARK   17  A    between atoms: _38  and  _40
REMARK   18  A    between atoms: _40  and  _41
REMARK   19  A    between atoms: _40  and  _43
REMARK   20  A    between atoms: _43  and  _44
REMARK   21  A    between atoms: _47  and  _49
REMARK   22  A    between atoms: _49  and  _50
REMARK   23  A    between atoms: _49  and  _52
REMARK   24  A    between atoms: _52  and  _53
REMARK   25  A    between atoms: _56  and  _58
REMARK   26  A    between atoms: _58  and  _59
REMARK   27  A    between atoms: _61  and  _63
REMARK   28  A    between atoms: _63  and  _64
REMARK   29  A    between atoms: _63  and  _66
REMARK   30  A    between atoms: _66  and  _67
REMARK   31  A    between atoms: _67  and  _68
REMARK   32  A    between atoms: _70  and  _72
REMARK   33  A    between atoms: _72  and  _73
REMARK   34  A    between atoms: _72  and  _75
REMARK   35  A    between atoms: _75  and  _76
REMARK   36  A    between atoms: _79  and  _81
REMARK   37  A    between atoms: _81  and  _82
REMARK   38  A    between atoms: _81  and  _84
REMARK   39  A    between atoms: _84  and  _85
REMARK   40  A    between atoms: _88  and  _90
REMARK   41  A    between atoms: _90  and  _91
REMARK   42  A    between atoms: _90  and  _93
REMARK   43  A    between atoms: _93  and  _94
REMARK   44  A    between atoms: _94  and  _95
REMARK   45  A    between atoms: _95  and  _96
REMARK   46  A    between atoms: _106  and  _107
REMARK   47  A    between atoms: _113  and  _114
REMARK   48  A    between atoms: _119  and  _121
REMARK   49  A    between atoms: _121  and  _122
REMARK   50  A    between atoms: _121  and  _124
REMARK   51  A    between atoms: _124  and  _125
REMARK   52  A    between atoms: _130  and  _132
REMARK   53  A    between atoms: _132  and  _133
REMARK   54  A    between atoms: _135  and  _137
REMARK   55  A    between atoms: _137  and  _138
REMARK   56  A    between atoms: _137  and  _140
REMARK   57  A    between atoms: _140  and  _141
REMARK   58  A    between atoms: _143  and  _145
REMARK   59  A    between atoms: _145  and  _146
REMARK   60  A    between atoms: _145  and  _148
REMARK   61  A    between atoms: _148  and  _149
REMARK   62  A    between atoms: _152  and  _154
REMARK   63  A    between atoms: _154  and  _155
REMARK   64  A    between atoms: _154  and  _157
REMARK   65  A    between atoms: _157  and  _158
REMARK   66  A    between atoms: _163  and  _165
REMARK   67  A    between atoms: _165  and  _166
REMARK   68  A    between atoms: _169  and  _171
REMARK   69  A    between atoms: _171  and  _172
REMARK   70  A    between atoms: _171  and  _174
REMARK   71  A    between atoms: _174  and  _175
REMARK   72  A    between atoms: _178  and  _179
REMARK   73  A    between atoms: _184  and  _186
REMARK   74  A    between atoms: _186  and  _187
REMARK   75  A    between atoms: _189  and  _191
REMARK   76  A    between atoms: _191  and  _192
REMARK   77  A    between atoms: _191  and  _194
REMARK   78  A    between atoms: _194  and  _195
REMARK   79  A    between atoms: _198  and  _200
REMARK   80  A    between atoms: _200  and  _201
REMARK   81  A    between atoms: _204  and  _206
REMARK   82  A    between atoms: _206  and  _207
REMARK   83  A    between atoms: _206  and  _209
REMARK   84  A    between atoms: _209  and  _210
REMARK   85  A    between atoms: _215  and  _217
REMARK   86  A    between atoms: _217  and  _218
REMARK   87  A    between atoms: _217  and  _220
REMARK   88  A    between atoms: _220  and  _221
REMARK   89  A    between atoms: _223  and  _225
REMARK   90  A    between atoms: _225  and  _226
REMARK   91  A    between atoms: _225  and  _228
REMARK   92  A    between atoms: _228  and  _229
REMARK   93  A    between atoms: _229  and  _230
REMARK   94  A    between atoms: _230  and  _231
REMARK   95  A    between atoms: _231  and  _232
REMARK   96  A    between atoms: _236  and  _238
REMARK   97  A    between atoms: _238  and  _239
REMARK   98  A    between atoms: _238  and  _241
REMARK   99  A    between atoms: _241  and  _242
REMARK  100  A    between atoms: _247  and  _249
REMARK  101  A    between atoms: _249  and  _250
REMARK  102  A    between atoms: _249  and  _252
REMARK  103  A    between atoms: _252  and  _253
REMARK  104  A    between atoms: _255  and  _257
REMARK  105  A    between atoms: _257  and  _258
REMARK  106  A    between atoms: _257  and  _260
REMARK  107  A    between atoms: _260  and  _261
REMARK  108  A    between atoms: _263  and  _265
REMARK  109  A    between atoms: _265  and  _266
REMARK  110  A    between atoms: _265  and  _268
REMARK  111  A    between atoms: _268  and  _269
REMARK  112  A    between atoms: _275  and  _277
REMARK  113  A    between atoms: _277  and  _278
REMARK  114  A    between atoms: _277  and  _280
REMARK  115  A    between atoms: _280  and  _281
REMARK  116  A    between atoms: _281  and  _282
REMARK  117  A    between atoms: _287  and  _289
REMARK  118  A    between atoms: _289  and  _290
REMARK  119  A    between atoms: _289  and  _292
REMARK  120  A    between atoms: _292  and  _293
REMARK  121  A    between atoms: _296  and  _298
REMARK  122  A    between atoms: _298  and  _299
REMARK  123  A    between atoms: _298  and  _301
REMARK  124  A    between atoms: _301  and  _302
REMARK  125  A    between atoms: _307  and  _309
REMARK  126  A    between atoms: _309  and  _310
REMARK  127  A    between atoms: _309  and  _312
REMARK  128  A    between atoms: _312  and  _313
REMARK  129  A    between atoms: _313  and  _314
REMARK  130  A    between atoms: _316  and  _318
REMARK  131  A    between atoms: _318  and  _319
REMARK  132  A    between atoms: _318  and  _321
REMARK  133  A    between atoms: _321  and  _322
REMARK  134  A    between atoms: _325  and  _327
REMARK  135  A    between atoms: _327  and  _328
REMARK  136  A    between atoms: _327  and  _330
REMARK  137  A    between atoms: _330  and  _331
REMARK  138  A    between atoms: _331  and  _332
REMARK  139  A    between atoms: _332  and  _333
REMARK  140  A    between atoms: _342  and  _344
REMARK  141  A    between atoms: _344  and  _345
REMARK  142  A    between atoms: _344  and  _347
REMARK  143  A    between atoms: _347  and  _348
REMARK  144  A    between atoms: _353  and  _354
REMARK  145  A    between atoms: _356  and  _358
REMARK  146  A    between atoms: _358  and  _359
REMARK  147  A    between atoms: _358  and  _365
REMARK  148  A    between atoms: _359  and  _360
REMARK  149  A    between atoms: _360  and  _361
REMARK  150  A    between atoms: _361  and  _362
REMARK  151  A    between atoms: _362  and  _363
REMARK  152  A    between atoms: _370  and  _372
REMARK  153  A    between atoms: _372  and  _373
REMARK  154  A    between atoms: _372  and  _375
REMARK  155  A    between atoms: _375  and  _376
REMARK  156  A    between atoms: _378  and  _380
REMARK  157  A    between atoms: _380  and  _381
REMARK  158  A    between atoms: _380  and  _383
REMARK  159  A    between atoms: _383  and  _384
REMARK  160  A    between atoms: _384  and  _385
REMARK  161  A    between atoms: _385  and  _386
REMARK  162  A    between atoms: _386  and  _387
REMARK  163  A    between atoms: _391  and  _393
REMARK  164  A    between atoms: _393  and  _394
REMARK  165  A    between atoms: _397  and  _399
REMARK  166  A    between atoms: _399  and  _400
REMARK  167  A    between atoms: _399  and  _402
REMARK  168  A    between atoms: _402  and  _403
REMARK  169  A    between atoms: _406  and  _408
REMARK  170  A    between atoms: _408  and  _409
REMARK  171  A    between atoms: _408  and  _411
REMARK  172  A    between atoms: _411  and  _412
REMARK  173  A    between atoms: _417  and  _419
REMARK  174  A    between atoms: _419  and  _420
REMARK  175  A    between atoms: _419  and  _422
REMARK  176  A    between atoms: _422  and  _423
REMARK  177  A    between atoms: _426  and  _428
REMARK  178  A    between atoms: _428  and  _429
REMARK  179  A    between atoms: _431  and  _433
REMARK  180  A    between atoms: _433  and  _434
REMARK  181  A    between atoms: _433  and  _436
REMARK  182  A    between atoms: _436  and  _437
REMARK  183  A    between atoms: _437  and  _438
REMARK  184  A    between atoms: _438  and  _439
REMARK  185  A    between atoms: _439  and  _440
REMARK  186  A    between atoms: _444  and  _446
REMARK  187  A    between atoms: _446  and  _447
REMARK  188  A    between atoms: _450  and  _452
REMARK  189  A    between atoms: _452  and  _453
REMARK  190  A    between atoms: _452  and  _455
REMARK  191  A    between atoms: _457  and  _459
REMARK  192  A    between atoms: _459  and  _460
REMARK  193  A    between atoms: _463  and  _465
REMARK  194  A    between atoms: _465  and  _466
REMARK  195  A    between atoms: _465  and  _468
REMARK  196  A    between atoms: _468  and  _469
REMARK  197  A    between atoms: _471  and  _473
REMARK  198  A    between atoms: _473  and  _474
REMARK  199  A    between atoms: _473  and  _476
REMARK  200  A    between atoms: _476  and  _477
REMARK  201  A    between atoms: _480  and  _482
REMARK  202  A    between atoms: _482  and  _483
REMARK  203  A    between atoms: _482  and  _485
REMARK  204  A    between atoms: _485  and  _486
REMARK  205  A    between atoms: _489  and  _491
REMARK  206  A    between atoms: _491  and  _492
REMARK  207  A    between atoms: _491  and  _494
REMARK  208  A    between atoms: _494  and  _495
REMARK  209  A    between atoms: _495  and  _496
REMARK  210  A    between atoms: _501  and  _503
REMARK  211  A    between atoms: _503  and  _504
REMARK  212  A    between atoms: _503  and  _506
REMARK  213  A    between atoms: _506  and  _507
REMARK  214  A    between atoms: _513  and  _515
REMARK  215  A    between atoms: _515  and  _516
REMARK  216  A    between atoms: _515  and  _518
REMARK  217  A    between atoms: _518  and  _519
REMARK  218  A    between atoms: _519  and  _520
REMARK  219  A    between atoms: _520  and  _521
REMARK  220  A    between atoms: _521  and  _522
REMARK  221  A    between atoms: _526  and  _528
REMARK  222  A    between atoms: _528  and  _529
REMARK  223  A    between atoms: _528  and  _531
REMARK  224  A    between atoms: _531  and  _532
REMARK  225  A    between atoms: _537  and  _539
REMARK  226  A    between atoms: _539  and  _540
REMARK  227  A    between atoms: _539  and  _542
REMARK  228  A    between atoms: _542  and  _543
REMARK  229  A    between atoms: _549  and  _551
REMARK  230  A    between atoms: _551  and  _552
REMARK  231  A    between atoms: _551  and  _554
REMARK  232  A    between atoms: _554  and  _555
REMARK  233  A    between atoms: _555  and  _556
REMARK  234  A    between atoms: _559  and  _561
REMARK  235  A    between atoms: _561  and  _562
REMARK  236  A    between atoms: _561  and  _564
REMARK  237  A    between atoms: _564  and  _565
REMARK  238  A    between atoms: _565  and  _566
REMARK  239  A    between atoms: _571  and  _573
REMARK  240  A    between atoms: _573  and  _574
REMARK  241  A    between atoms: _573  and  _576
REMARK  242  A    between atoms: _576  and  _577
REMARK  243  A    between atoms: _577  and  _578
REMARK  244  A    between atoms: _578  and  _579
REMARK  245  A    between atoms: _588  and  _590
REMARK  246  A    between atoms: _590  and  _591
REMARK                            x       y       z     vdW  Elec       q    Type
REMARK                         _______ _______ _______ _____ _____    ______ ____
ROOT
ATOM      1  O   HOH     1       3.022  23.591  55.289  0.00  0.00    +0.000 OA
ENDROOT
TORSDOF 0
REMARK  Name = ../refined-set-2016/2xpc/2xpc_pocket.pdb
REMARK  246 active torsions:
REMARK  status: ('A' for Active; 'I' for Inactive)
REMARK    1  A    between atoms: _1  and  _3
REMARK    2  A    between atoms: _3  and  _4
REMARK    3  A    between atoms: _3  and  _6
REMARK    4  A    between atoms: _6  and  _7
REMARK    5  A    between atoms: _10  and  _12
REMARK    6  A    between atoms: _12  and  _13
REMARK    7  A    between atoms: _12  and  _15
REMARK    8  A    between atoms: _15  and  _16
REMARK    9  A    between atoms: _19  and  _21
REMARK   10  A    between atoms: _21  and  _22
REMARK   11  A    between atoms: _24  and  _26
REMARK   12  A    between atoms: _26  and  _27
REMARK   13  A    between atoms: _26  and  _29
REMARK   14  A    between atoms: _29  and  _30
REMARK   15  A    between atoms: _33  and  _35
REMARK   16  A    between atoms: _35  and  _36
REMARK   17  A    between atoms: _38  and  _40
REMARK   18  A    between atoms: _40  and  _41
REMARK   19  A    between atoms: _40  and  _43
REMARK   20  A    between atoms: _43  and  _44
REMARK   21  A    between atoms: _47  and  _49
REMARK   22  A    between atoms: _49  and  _50
REMARK   23  A    between atoms: _49  and  _52
REMARK   24  A    between atoms: _52  and  _53
REMARK   25  A    between atoms: _56  and  _58
REMARK   26  A    between atoms: _58  and  _59
REMARK   27  A    between atoms: _61  and  _63
REMARK   28  A    between atoms: _63  and  _64
REMARK   29  A    between atoms: _63  and  _66
REMARK   30  A    between atoms: _66  and  _67
REMARK   31  A    between atoms: _67  and  _68
REMARK   32  A    between atoms: _70  and  _72
REMARK   33  A    between atoms: _72  and  _73
REMARK   34  A    between atoms: _72  and  _75
REMARK   35  A    between atoms: _75  and  _76
REMARK   36  A    between atoms: _79  and  _81
REMARK   37  A    between atoms: _81  and  _82
REMARK   38  A    between atoms: _81  and  _84
REMARK   39  A    between atoms: _84  and  _85
REMARK   40  A    between atoms: _88  and  _90
REMARK   41  A    between atoms: _90  and  _91
REMARK   42  A    between atoms: _90  and  _93
REMARK   43  A    between atoms: _93  and  _94
REMARK   44  A    between atoms: _94  and  _95
REMARK   45  A    between atoms: _95  and  _96
REMARK   46  A    between atoms: _106  and  _107
REMARK   47  A    between atoms: _113  and  _114
REMARK   48  A    between atoms: _119  and  _121
REMARK   49  A    between atoms: _121  and  _122
REMARK   50  A    between atoms: _121  and  _124
REMARK   51  A    between atoms: _124  and  _125
REMARK   52  A    between atoms: _130  and  _132
REMARK   53  A    between atoms: _132  and  _133
REMARK   54  A    between atoms: _135  and  _137
REMARK   55  A    between atoms: _137  and  _138
REMARK   56  A    between atoms: _137  and  _140
REMARK   57  A    between atoms: _140  and  _141
REMARK   58  A    between atoms: _143  and  _145
REMARK   59  A    between atoms: _145  and  _146
REMARK   60  A    between atoms: _145  and  _148
REMARK   61  A    between atoms: _148  and  _149
REMARK   62  A    between atoms: _152  and  _154
REMARK   63  A    between atoms: _154  and  _155
REMARK   64  A    between atoms: _154  and  _157
REMARK   65  A    between atoms: _157  and  _158
REMARK   66  A    between atoms: _163  and  _165
REMARK   67  A    between atoms: _165  and  _166
REMARK   68  A    between atoms: _169  and  _171
REMARK   69  A    between atoms: _171  and  _172
REMARK   70  A    between atoms: _171  and  _174
REMARK   71  A    between atoms: _174  and  _175
REMARK   72  A    between atoms: _178  and  _179
REMARK   73  A    between atoms: _184  and  _186
REMARK   74  A    between atoms: _186  and  _187
REMARK   75  A    between atoms: _189  and  _191
REMARK   76  A    between atoms: _191  and  _192
REMARK   77  A    between atoms: _191  and  _194
REMARK   78  A    between atoms: _194  and  _195
REMARK   79  A    between atoms: _198  and  _200
REMARK   80  A    between atoms: _200  and  _201
REMARK   81  A    between atoms: _204  and  _206
REMARK   82  A    between atoms: _206  and  _207
REMARK   83  A    between atoms: _206  and  _209
REMARK   84  A    between atoms: _209  and  _210
REMARK   85  A    between atoms: _215  and  _217
REMARK   86  A    between atoms: _217  and  _218
REMARK   87  A    between atoms: _217  and  _220
REMARK   88  A    between atoms: _220  and  _221
REMARK   89  A    between atoms: _223  and  _225
REMARK   90  A    between atoms: _225  and  _226
REMARK   91  A    between atoms: _225  and  _228
REMARK   92  A    between atoms: _228  and  _229
REMARK   93  A    between atoms: _229  and  _230
REMARK   94  A    between atoms: _230  and  _231
REMARK   95  A    between atoms: _231  and  _232
REMARK   96  A    between atoms: _236  and  _238
REMARK   97  A    between atoms: _238  and  _239
REMARK   98  A    between atoms: _238  and  _241
REMARK   99  A    between atoms: _241  and  _242
REMARK  100  A    between atoms: _247  and  _249
REMARK  101  A    between atoms: _249  and  _250
REMARK  102  A    between atoms: _249  and  _252
REMARK  103  A    between atoms: _252  and  _253
REMARK  104  A    between atoms: _255  and  _257
REMARK  105  A    between atoms: _257  and  _258
REMARK  106  A    between atoms: _257  and  _260
REMARK  107  A    between atoms: _260  and  _261
REMARK  108  A    between atoms: _263  and  _265
REMARK  109  A    between atoms: _265  and  _266
REMARK  110  A    between atoms: _265  and  _268
REMARK  111  A    between atoms: _268  and  _269
REMARK  112  A    between atoms: _275  and  _277
REMARK  113  A    between atoms: _277  and  _278
REMARK  114  A    between atoms: _277  and  _280
REMARK  115  A    between atoms: _280  and  _281
REMARK  116  A    between atoms: _281  and  _282
REMARK  117  A    between atoms: _287  and  _289
REMARK  118  A    between atoms: _289  and  _290
REMARK  119  A    between atoms: _289  and  _292
REMARK  120  A    between atoms: _292  and  _293
REMARK  121  A    between atoms: _296  and  _298
REMARK  122  A    between atoms: _298  and  _299
REMARK  123  A    between atoms: _298  and  _301
REMARK  124  A    between atoms: _301  and  _302
REMARK  125  A    between atoms: _307  and  _309
REMARK  126  A    between atoms: _309  and  _310
REMARK  127  A    between atoms: _309  and  _312
REMARK  128  A    between atoms: _312  and  _313
REMARK  129  A    between atoms: _313  and  _314
REMARK  130  A    between atoms: _316  and  _318
REMARK  131  A    between atoms: _318  and  _319
REMARK  132  A    between atoms: _318  and  _321
REMARK  133  A    between atoms: _321  and  _322
REMARK  134  A    between atoms: _325  and  _327
REMARK  135  A    between atoms: _327  and  _328
REMARK  136  A    between atoms: _327  and  _330
REMARK  137  A    between atoms: _330  and  _331
REMARK  138  A    between atoms: _331  and  _332
REMARK  139  A    between atoms: _332  and  _333
REMARK  140  A    between atoms: _342  and  _344
REMARK  141  A    between atoms: _344  and  _345
REMARK  142  A    between atoms: _344  and  _347
REMARK  143  A    between atoms: _347  and  _348
REMARK  144  A    between atoms: _353  and  _354
REMARK  145  A    between atoms: _356  and  _358
REMARK  146  A    between atoms: _358  and  _359
REMARK  147  A    between atoms: _358  and  _365
REMARK  148  A    between atoms: _359  and  _360
REMARK  149  A    between atoms: _360  and  _361
REMARK  150  A    between atoms: _361  and  _362
REMARK  151  A    between atoms: _362  and  _363
REMARK  152  A    between atoms: _370  and  _372
REMARK  153  A    between atoms: _372  and  _373
REMARK  154  A    between atoms: _372  and  _375
REMARK  155  A    between atoms: _375  and  _376
REMARK  156  A    between atoms: _378  and  _380
REMARK  157  A    between atoms: _380  and  _381
REMARK  158  A    between atoms: _380  and  _383
REMARK  159  A    between atoms: _383  and  _384
REMARK  160  A    between atoms: _384  and  _385
REMARK  161  A    between atoms: _385  and  _386
REMARK  162  A    between atoms: _386  and  _387
REMARK  163  A    between atoms: _391  and  _393
REMARK  164  A    between atoms: _393  and  _394
REMARK  165  A    between atoms: _397  and  _399
REMARK  166  A    between atoms: _399  and  _400
REMARK  167  A    between atoms: _399  and  _402
REMARK  168  A    between atoms: _402  and  _403
REMARK  169  A    between atoms: _406  and  _408
REMARK  170  A    between atoms: _408  and  _409
REMARK  171  A    between atoms: _408  and  _411
REMARK  172  A    between atoms: _411  and  _412
REMARK  173  A    between atoms: _417  and  _419
REMARK  174  A    between atoms: _419  and  _420
REMARK  175  A    between atoms: _419  and  _422
REMARK  176  A    between atoms: _422  and  _423
REMARK  177  A    between atoms: _426  and  _428
REMARK  178  A    between atoms: _428  and  _429
REMARK  179  A    between atoms: _431  and  _433
REMARK  180  A    between atoms: _433  and  _434
REMARK  181  A    between atoms: _433  and  _436
REMARK  182  A    between atoms: _436  and  _437
REMARK  183  A    between atoms: _437  and  _438
REMARK  184  A    between atoms: _438  and  _439
REMARK  185  A    between atoms: _439  and  _440
REMARK  186  A    between atoms: _444  and  _446
REMARK  187  A    between atoms: _446  and  _447
REMARK  188  A    between atoms: _450  and  _452
REMARK  189  A    between atoms: _452  and  _453
REMARK  190  A    between atoms: _452  and  _455
REMARK  191  A    between atoms: _457  and  _459
REMARK  192  A    between atoms: _459  and  _460
REMARK  193  A    between atoms: _463  and  _465
REMARK  194  A    between atoms: _465  and  _466
REMARK  195  A    between atoms: _465  and  _468
REMARK  196  A    between atoms: _468  and  _469
REMARK  197  A    between atoms: _471  and  _473
REMARK  198  A    between atoms: _473  and  _474
REMARK  199  A    between atoms: _473  and  _476
REMARK  200  A    between atoms: _476  and  _477
REMARK  201  A    between atoms: _480  and  _482
REMARK  202  A    between atoms: _482  and  _483
REMARK  203  A    between atoms: _482  and  _485
REMARK  204  A    between atoms: _485  and  _486
REMARK  205  A    between atoms: _489  and  _491
REMARK  206  A    between atoms: _491  and  _492
REMARK  207  A    between atoms: _491  and  _494
REMARK  208  A    between atoms: _494  and  _495
REMARK  209  A    between atoms: _495  and  _496
REMARK  210  A    between atoms: _501  and  _503
REMARK  211  A    between atoms: _503  and  _504
REMARK  212  A    between atoms: _503  and  _506
REMARK  213  A    between atoms: _506  and  _507
REMARK  214  A    between atoms: _513  and  _515
REMARK  215  A    between atoms: _515  and  _516
REMARK  216  A    between atoms: _515  and  _518
REMARK  217  A    between atoms: _518  and  _519
REMARK  218  A    between atoms: _519  and  _520
REMARK  219  A    between atoms: _520  and  _521
REMARK  220  A    between atoms: _521  and  _522
REMARK  221  A    between atoms: _526  and  _528
REMARK  222  A    between atoms: _528  and  _529
REMARK  223  A    between atoms: _528  and  _531
REMARK  224  A    between atoms: _531  and  _532
REMARK  225  A    between atoms: _537  and  _539
REMARK  226  A    between atoms: _539  and  _540
REMARK  227  A    between atoms: _539  and  _542
REMARK  228  A    between atoms: _542  and  _543
REMARK  229  A    between atoms: _549  and  _551
REMARK  230  A    between atoms: _551  and  _552
REMARK  231  A    between atoms: _551  and  _554
REMARK  232  A    between atoms: _554  and  _555
REMARK  233  A    between atoms: _555  and  _556
REMARK  234  A    between atoms: _559  and  _561
REMARK  235  A    between atoms: _561  and  _562
REMARK  236  A    between atoms: _561  and  _564
REMARK  237  A    between atoms: _564  and  _565
REMARK  238  A    between atoms: _565  and  _566
REMARK  239  A    between atoms: _571  and  _573
REMARK  240  A    between atoms: _573  and  _574
REMARK  241  A    between atoms: _573  and  _576
REMARK  242  A    between atoms: _576  and  _577
REMARK  243  A    between atoms: _577  and  _578
REMARK  244  A    between atoms: _578  and  _579
REMARK  245  A    between atoms: _588  and  _590
REMARK  246  A    between atoms: _590  and  _591
REMARK                            x       y       z     vdW  Elec       q    Type
REMARK                         _______ _______ _______ _____ _____    ______ ____
ROOT
ATOM      1  O   HOH     1      12.388  40.227  53.795  0.00  0.00    +0.000 OA
ENDROOT
TORSDOF 0
