REMARK  Name = ../refined-set-2016/3hl5/3hl5_pocket.pdb
REMARK  102 active torsions:
REMARK  status: ('A' for Active; 'I' for Inactive)
REMARK    1  A    between atoms: _1  and  _3
REMARK    2  A    between atoms: _3  and  _4
REMARK    3  A    between atoms: _3  and  _6
REMARK    4  A    between atoms: _9  and  _11
REMARK    5  A    between atoms: _11  and  _12
REMARK    6  A    between atoms: _11  and  _14
REMARK    7  A    between atoms: _14  and  _15
REMARK    8  A    between atoms: _18  and  _20
REMARK    9  A    between atoms: _20  and  _21
REMARK   10  A    between atoms: _20  and  _23
REMARK   11  A    between atoms: _23  and  _24
REMARK   12  A    between atoms: _30  and  _32
REMARK   13  A    between atoms: _32  and  _33
REMARK   14  A    between atoms: _32  and  _35
REMARK   15  A    between atoms: _35  and  _36
REMARK   16  A    between atoms: _36  and  _37
REMARK   17  A    between atoms: _40  and  _42
REMARK   18  A    between atoms: _42  and  _43
REMARK   19  A    between atoms: _42  and  _45
REMARK   20  A    between atoms: _45  and  _46
REMARK   21  A    between atoms: _49  and  _51
REMARK   22  A    between atoms: _51  and  _52
REMARK   23  A    between atoms: _51  and  _54
REMARK   24  A    between atoms: _54  and  _55
REMARK   25  A    between atoms: _55  and  _56
REMARK   26  A    between atoms: _56  and  _57
REMARK   27  A    between atoms: _57  and  _58
REMARK   28  A    between atoms: _62  and  _64
REMARK   29  A    between atoms: _64  and  _65
REMARK   30  A    between atoms: _64  and  _67
REMARK   31  A    between atoms: _70  and  _72
REMARK   32  A    between atoms: _72  and  _73
REMARK   33  A    between atoms: _72  and  _75
REMARK   34  A    between atoms: _75  and  _76
REMARK   35  A    between atoms: _76  and  _77
REMARK   36  A    between atoms: _77  and  _78
REMARK   37  A    between atoms: _78  and  _79
REMARK   38  A    between atoms: _83  and  _85
REMARK   39  A    between atoms: _85  and  _86
REMARK   40  A    between atoms: _88  and  _90
REMARK   41  A    between atoms: _90  and  _91
REMARK   42  A    between atoms: _93  and  _95
REMARK   43  A    between atoms: _95  and  _96
REMARK   44  A    between atoms: _98  and  _100
REMARK   45  A    between atoms: _100  and  _101
REMARK   46  A    between atoms: _100  and  _103
REMARK   47  A    between atoms: _103  and  _104
REMARK   48  A    between atoms: _107  and  _109
REMARK   49  A    between atoms: _109  and  _110
REMARK   50  A    between atoms: _109  and  _112
REMARK   51  A    between atoms: _112  and  _113
REMARK   52  A    between atoms: _116  and  _118
REMARK   53  A    between atoms: _118  and  _119
REMARK   54  A    between atoms: _118  and  _121
REMARK   55  A    between atoms: _121  and  _122
REMARK   56  A    between atoms: _125  and  _127
REMARK   57  A    between atoms: _127  and  _128
REMARK   58  A    between atoms: _127  and  _130
REMARK   59  A    between atoms: _130  and  _131
REMARK   60  A    between atoms: _141  and  _143
REMARK   61  A    between atoms: _143  and  _144
REMARK   62  A    between atoms: _143  and  _146
REMARK   63  A    between atoms: _146  and  _147
REMARK   64  A    between atoms: _147  and  _148
REMARK   65  A    between atoms: _148  and  _149
REMARK   66  A    between atoms: _149  and  _150
REMARK   67  A    between atoms: _155  and  _156
REMARK   68  A    between atoms: _161  and  _163
REMARK   69  A    between atoms: _163  and  _164
REMARK   70  A    between atoms: _163  and  _166
REMARK   71  A    between atoms: _166  and  _167
REMARK   72  A    between atoms: _167  and  _168
REMARK   73  A    between atoms: _171  and  _173
REMARK   74  A    between atoms: _173  and  _174
REMARK   75  A    between atoms: _173  and  _176
REMARK   76  A    between atoms: _176  and  _177
REMARK   77  A    between atoms: _181  and  _182
REMARK   78  A    between atoms: _187  and  _189
REMARK   79  A    between atoms: _189  and  _190
REMARK   80  A    between atoms: _189  and  _192
REMARK   81  A    between atoms: _192  and  _193
REMARK   82  A    between atoms: _193  and  _194
REMARK   83  A    between atoms: _199  and  _201
REMARK   84  A    between atoms: _201  and  _202
REMARK   85  A    between atoms: _201  and  _204
REMARK   86  A    between atoms: _204  and  _205
REMARK   87  A    between atoms: _210  and  _212
REMARK   88  A    between atoms: _212  and  _213
REMARK   89  A    between atoms: _212  and  _215
REMARK   90  A    between atoms: _215  and  _216
REMARK   91  A    between atoms: _216  and  _217
REMARK   92  A    between atoms: _217  and  _218
REMARK   93  A    between atoms: _218  and  _219
REMARK   94  A    between atoms: _223  and  _225
REMARK   95  A    between atoms: _225  and  _226
REMARK   96  A    between atoms: _225  and  _228
REMARK   97  A    between atoms: _228  and  _229
REMARK   98  A    between atoms: _239  and  _241
REMARK   99  A    between atoms: _241  and  _242
REMARK  100  A    between atoms: _241  and  _244
REMARK  101  A    between atoms: _244  and  _245
REMARK  102  A    between atoms: _250  and  _251
REMARK                            x       y       z     vdW  Elec       q    Type
REMARK                         _______ _______ _______ _____ _____    ______ ____
ROOT
ATOM      1  CA  VAL A   1      12.001  23.671 -12.506  0.00  0.00    +0.133 C 
ENDROOT
BRANCH   1   2
ATOM      2  CB  VAL A   1      11.472  22.307 -13.014  0.00  0.00    +0.023 C 
ATOM      3  CG2 VAL A   1      10.195  21.906 -12.287  0.00  0.00    +0.002 C 
ATOM      4  CG1 VAL A   1      11.204  22.375 -14.503  0.00  0.00    +0.002 C 
ENDBRANCH   1   2
BRANCH   1   5
ATOM      5  N   VAL A   1      13.174  24.110 -13.262  0.00  0.00    -0.239 NA
ATOM      6  H   VAL A   1      13.594  23.461 -13.958  0.00  0.00    +0.142 HD
ENDBRANCH   1   5
BRANCH   1   7
ATOM      7  C   VAL A   1      12.323  23.617 -11.011  0.00  0.00    +0.224 C 
ATOM      8  O   VAL A   1      13.336  23.043 -10.600  0.00  0.00    -0.287 OA
ENDBRANCH   1   7
TORSDOF 3
REMARK  Name = ../refined-set-2016/3hl5/3hl5_pocket.pdb
REMARK  102 active torsions:
REMARK  status: ('A' for Active; 'I' for Inactive)
REMARK    1  A    between atoms: _1  and  _3
REMARK    2  A    between atoms: _3  and  _4
REMARK    3  A    between atoms: _3  and  _6
REMARK    4  A    between atoms: _9  and  _11
REMARK    5  A    between atoms: _11  and  _12
REMARK    6  A    between atoms: _11  and  _14
REMARK    7  A    between atoms: _14  and  _15
REMARK    8  A    between atoms: _18  and  _20
REMARK    9  A    between atoms: _20  and  _21
REMARK   10  A    between atoms: _20  and  _23
REMARK   11  A    between atoms: _23  and  _24
REMARK   12  A    between atoms: _30  and  _32
REMARK   13  A    between atoms: _32  and  _33
REMARK   14  A    between atoms: _32  and  _35
REMARK   15  A    between atoms: _35  and  _36
REMARK   16  A    between atoms: _36  and  _37
REMARK   17  A    between atoms: _40  and  _42
REMARK   18  A    between atoms: _42  and  _43
REMARK   19  A    between atoms: _42  and  _45
REMARK   20  A    between atoms: _45  and  _46
REMARK   21  A    between atoms: _49  and  _51
REMARK   22  A    between atoms: _51  and  _52
REMARK   23  A    between atoms: _51  and  _54
REMARK   24  A    between atoms: _54  and  _55
REMARK   25  A    between atoms: _55  and  _56
REMARK   26  A    between atoms: _56  and  _57
REMARK   27  A    between atoms: _57  and  _58
REMARK   28  A    between atoms: _62  and  _64
REMARK   29  A    between atoms: _64  and  _65
REMARK   30  A    between atoms: _64  and  _67
REMARK   31  A    between atoms: _70  and  _72
REMARK   32  A    between atoms: _72  and  _73
REMARK   33  A    between atoms: _72  and  _75
REMARK   34  A    between atoms: _75  and  _76
REMARK   35  A    between atoms: _76  and  _77
REMARK   36  A    between atoms: _77  and  _78
REMARK   37  A    between atoms: _78  and  _79
REMARK   38  A    between atoms: _83  and  _85
REMARK   39  A    between atoms: _85  and  _86
REMARK   40  A    between atoms: _88  and  _90
REMARK   41  A    between atoms: _90  and  _91
REMARK   42  A    between atoms: _93  and  _95
REMARK   43  A    between atoms: _95  and  _96
REMARK   44  A    between atoms: _98  and  _100
REMARK   45  A    between atoms: _100  and  _101
REMARK   46  A    between atoms: _100  and  _103
REMARK   47  A    between atoms: _103  and  _104
REMARK   48  A    between atoms: _107  and  _109
REMARK   49  A    between atoms: _109  and  _110
REMARK   50  A    between atoms: _109  and  _112
REMARK   51  A    between atoms: _112  and  _113
REMARK   52  A    between atoms: _116  and  _118
REMARK   53  A    between atoms: _118  and  _119
REMARK   54  A    between atoms: _118  and  _121
REMARK   55  A    between atoms: _121  and  _122
REMARK   56  A    between atoms: _125  and  _127
REMARK   57  A    between atoms: _127  and  _128
REMARK   58  A    between atoms: _127  and  _130
REMARK   59  A    between atoms: _130  and  _131
REMARK   60  A    between atoms: _141  and  _143
REMARK   61  A    between atoms: _143  and  _144
REMARK   62  A    between atoms: _143  and  _146
REMARK   63  A    between atoms: _146  and  _147
REMARK   64  A    between atoms: _147  and  _148
REMARK   65  A    between atoms: _148  and  _149
REMARK   66  A    between atoms: _149  and  _150
REMARK   67  A    between atoms: _155  and  _156
REMARK   68  A    between atoms: _161  and  _163
REMARK   69  A    between atoms: _163  and  _164
REMARK   70  A    between atoms: _163  and  _166
REMARK   71  A    between atoms: _166  and  _167
REMARK   72  A    between atoms: _167  and  _168
REMARK   73  A    between atoms: _171  and  _173
REMARK   74  A    between atoms: _173  and  _174
REMARK   75  A    between atoms: _173  and  _176
REMARK   76  A    between atoms: _176  and  _177
REMARK   77  A    between atoms: _181  and  _182
REMARK   78  A    between atoms: _187  and  _189
REMARK   79  A    between atoms: _189  and  _190
REMARK   80  A    between atoms: _189  and  _192
REMARK   81  A    between atoms: _192  and  _193
REMARK   82  A    between atoms: _193  and  _194
REMARK   83  A    between atoms: _199  and  _201
REMARK   84  A    between atoms: _201  and  _202
REMARK   85  A    between atoms: _201  and  _204
REMARK   86  A    between atoms: _204  and  _205
REMARK   87  A    between atoms: _210  and  _212
REMARK   88  A    between atoms: _212  and  _213
REMARK   89  A    between atoms: _212  and  _215
REMARK   90  A    between atoms: _215  and  _216
REMARK   91  A    between atoms: _216  and  _217
REMARK   92  A    between atoms: _217  and  _218
REMARK   93  A    between atoms: _218  and  _219
REMARK   94  A    between atoms: _223  and  _225
REMARK   95  A    between atoms: _225  and  _226
REMARK   96  A    between atoms: _225  and  _228
REMARK   97  A    between atoms: _228  and  _229
REMARK   98  A    between atoms: _239  and  _241
REMARK   99  A    between atoms: _241  and  _242
REMARK  100  A    between atoms: _241  and  _244
REMARK  101  A    between atoms: _244  and  _245
REMARK  102  A    between atoms: _250  and  _251
REMARK                            x       y       z     vdW  Elec       q    Type
REMARK                         _______ _______ _______ _____ _____    ______ ____
ROOT
ATOM      1  CA  LEU A   1       9.143  18.857  -7.602  0.00  0.00    +0.133 C 
ENDROOT
BRANCH   1   2
ATOM      2  N   LEU A   1       8.898  20.229  -7.161  0.00  0.00    -0.239 NA
ATOM      3  H   LEU A   1       9.666  20.926  -7.233  0.00  0.00    +0.142 HD
ENDBRANCH   1   2
BRANCH   1   4
ATOM      4  C   LEU A   1       8.960  17.857  -6.460  0.00  0.00    +0.224 C 
ATOM      5  O   LEU A   1       8.208  16.892  -6.600  0.00  0.00    -0.287 OA
ENDBRANCH   1   4
BRANCH   1   6
ATOM      6  CB  LEU A   1      10.539  18.714  -8.215  0.00  0.00    +0.025 C 
BRANCH   6   7
ATOM      7  CG  LEU A   1      10.744  19.221  -9.648  0.00  0.00    +0.002 C 
ATOM      8  CD2 LEU A   1      12.225  19.372  -9.942  0.00  0.00    +0.000 C 
ATOM      9  CD1 LEU A   1      10.082  18.292 -10.659  0.00  0.00    +0.000 C 
ENDBRANCH   6   7
ENDBRANCH   1   6
TORSDOF 4
REMARK  Name = ../refined-set-2016/3hl5/3hl5_pocket.pdb
REMARK  102 active torsions:
REMARK  status: ('A' for Active; 'I' for Inactive)
REMARK    1  A    between atoms: _1  and  _3
REMARK    2  A    between atoms: _3  and  _4
REMARK    3  A    between atoms: _3  and  _6
REMARK    4  A    between atoms: _9  and  _11
REMARK    5  A    between atoms: _11  and  _12
REMARK    6  A    between atoms: _11  and  _14
REMARK    7  A    between atoms: _14  and  _15
REMARK    8  A    between atoms: _18  and  _20
REMARK    9  A    between atoms: _20  and  _21
REMARK   10  A    between atoms: _20  and  _23
REMARK   11  A    between atoms: _23  and  _24
REMARK   12  A    between atoms: _30  and  _32
REMARK   13  A    between atoms: _32  and  _33
REMARK   14  A    between atoms: _32  and  _35
REMARK   15  A    between atoms: _35  and  _36
REMARK   16  A    between atoms: _36  and  _37
REMARK   17  A    between atoms: _40  and  _42
REMARK   18  A    between atoms: _42  and  _43
REMARK   19  A    between atoms: _42  and  _45
REMARK   20  A    between atoms: _45  and  _46
REMARK   21  A    between atoms: _49  and  _51
REMARK   22  A    between atoms: _51  and  _52
REMARK   23  A    between atoms: _51  and  _54
REMARK   24  A    between atoms: _54  and  _55
REMARK   25  A    between atoms: _55  and  _56
REMARK   26  A    between atoms: _56  and  _57
REMARK   27  A    between atoms: _57  and  _58
REMARK   28  A    between atoms: _62  and  _64
REMARK   29  A    between atoms: _64  and  _65
REMARK   30  A    between atoms: _64  and  _67
REMARK   31  A    between atoms: _70  and  _72
REMARK   32  A    between atoms: _72  and  _73
REMARK   33  A    between atoms: _72  and  _75
REMARK   34  A    between atoms: _75  and  _76
REMARK   35  A    between atoms: _76  and  _77
REMARK   36  A    between atoms: _77  and  _78
REMARK   37  A    between atoms: _78  and  _79
REMARK   38  A    between atoms: _83  and  _85
REMARK   39  A    between atoms: _85  and  _86
REMARK   40  A    between atoms: _88  and  _90
REMARK   41  A    between atoms: _90  and  _91
REMARK   42  A    between atoms: _93  and  _95
REMARK   43  A    between atoms: _95  and  _96
REMARK   44  A    between atoms: _98  and  _100
REMARK   45  A    between atoms: _100  and  _101
REMARK   46  A    between atoms: _100  and  _103
REMARK   47  A    between atoms: _103  and  _104
REMARK   48  A    between atoms: _107  and  _109
REMARK   49  A    between atoms: _109  and  _110
REMARK   50  A    between atoms: _109  and  _112
REMARK   51  A    between atoms: _112  and  _113
REMARK   52  A    between atoms: _116  and  _118
REMARK   53  A    between atoms: _118  and  _119
REMARK   54  A    between atoms: _118  and  _121
REMARK   55  A    between atoms: _121  and  _122
REMARK   56  A    between atoms: _125  and  _127
REMARK   57  A    between atoms: _127  and  _128
REMARK   58  A    between atoms: _127  and  _130
REMARK   59  A    between atoms: _130  and  _131
REMARK   60  A    between atoms: _141  and  _143
REMARK   61  A    between atoms: _143  and  _144
REMARK   62  A    between atoms: _143  and  _146
REMARK   63  A    between atoms: _146  and  _147
REMARK   64  A    between atoms: _147  and  _148
REMARK   65  A    between atoms: _148  and  _149
REMARK   66  A    between atoms: _149  and  _150
REMARK   67  A    between atoms: _155  and  _156
REMARK   68  A    between atoms: _161  and  _163
REMARK   69  A    between atoms: _163  and  _164
REMARK   70  A    between atoms: _163  and  _166
REMARK   71  A    between atoms: _166  and  _167
REMARK   72  A    between atoms: _167  and  _168
REMARK   73  A    between atoms: _171  and  _173
REMARK   74  A    between atoms: _173  and  _174
REMARK   75  A    between atoms: _173  and  _176
REMARK   76  A    between atoms: _176  and  _177
REMARK   77  A    between atoms: _181  and  _182
REMARK   78  A    between atoms: _187  and  _189
REMARK   79  A    between atoms: _189  and  _190
REMARK   80  A    between atoms: _189  and  _192
REMARK   81  A    between atoms: _192  and  _193
REMARK   82  A    between atoms: _193  and  _194
REMARK   83  A    between atoms: _199  and  _201
REMARK   84  A    between atoms: _201  and  _202
REMARK   85  A    between atoms: _201  and  _204
REMARK   86  A    between atoms: _204  and  _205
REMARK   87  A    between atoms: _210  and  _212
REMARK   88  A    between atoms: _212  and  _213
REMARK   89  A    between atoms: _212  and  _215
REMARK   90  A    between atoms: _215  and  _216
REMARK   91  A    between atoms: _216  and  _217
REMARK   92  A    between atoms: _217  and  _218
REMARK   93  A    between atoms: _218  and  _219
REMARK   94  A    between atoms: _223  and  _225
REMARK   95  A    between atoms: _225  and  _226
REMARK   96  A    between atoms: _225  and  _228
REMARK   97  A    between atoms: _228  and  _229
REMARK   98  A    between atoms: _239  and  _241
REMARK   99  A    between atoms: _241  and  _242
REMARK  100  A    between atoms: _241  and  _244
REMARK  101  A    between atoms: _244  and  _245
REMARK  102  A    between atoms: _250  and  _251
REMARK                            x       y       z     vdW  Elec       q    Type
REMARK                         _______ _______ _______ _____ _____    ______ ____
ROOT
ATOM      1  CB  PHE A   1       9.458  14.417  -8.612  0.00  0.00    +0.051 C 
ENDROOT
BRANCH   1   2
ATOM      2  CG  PHE A   1       8.339  14.278  -9.601  0.00  0.00    -0.020 A 
ATOM      3  CD2 PHE A   1       7.435  15.320  -9.789  0.00  0.00    -0.004 A 
ATOM      4  CE2 PHE A   1       6.398  15.200 -10.705  0.00  0.00    -0.000 A 
ATOM      5  CZ  PHE A   1       6.262  14.036 -11.455  0.00  0.00    -0.000 A 
ATOM      6  CE1 PHE A   1       7.165  12.988 -11.281  0.00  0.00    -0.000 A 
ATOM      7  CD1 PHE A   1       8.195  13.114 -10.357  0.00  0.00    -0.004 A 
ENDBRANCH   1   2
BRANCH   1   8
ATOM      8  CA  PHE A   1       9.308  13.531  -7.365  0.00  0.00    +0.137 C 
BRANCH   8   9
ATOM      9  N   PHE A   1       8.120  13.898  -6.591  0.00  0.00    -0.239 NA
ATOM     10  H   PHE A   1       7.826  14.895  -6.553  0.00  0.00    +0.142 HD
ENDBRANCH   8   9
BRANCH   8  11
ATOM     11  C   PHE A   1      10.614  13.588  -6.575  0.00  0.00    +0.224 C 
ATOM     12  O   PHE A   1      10.780  14.418  -5.680  0.00  0.00    -0.287 OA
ENDBRANCH   8  11
ENDBRANCH   1   8
TORSDOF 4
REMARK  Name = ../refined-set-2016/3hl5/3hl5_pocket.pdb
REMARK  102 active torsions:
REMARK  status: ('A' for Active; 'I' for Inactive)
REMARK    1  A    between atoms: _1  and  _3
REMARK    2  A    between atoms: _3  and  _4
REMARK    3  A    between atoms: _3  and  _6
REMARK    4  A    between atoms: _9  and  _11
REMARK    5  A    between atoms: _11  and  _12
REMARK    6  A    between atoms: _11  and  _14
REMARK    7  A    between atoms: _14  and  _15
REMARK    8  A    between atoms: _18  and  _20
REMARK    9  A    between atoms: _20  and  _21
REMARK   10  A    between atoms: _20  and  _23
REMARK   11  A    between atoms: _23  and  _24
REMARK   12  A    between atoms: _30  and  _32
REMARK   13  A    between atoms: _32  and  _33
REMARK   14  A    between atoms: _32  and  _35
REMARK   15  A    between atoms: _35  and  _36
REMARK   16  A    between atoms: _36  and  _37
REMARK   17  A    between atoms: _40  and  _42
REMARK   18  A    between atoms: _42  and  _43
REMARK   19  A    between atoms: _42  and  _45
REMARK   20  A    between atoms: _45  and  _46
REMARK   21  A    between atoms: _49  and  _51
REMARK   22  A    between atoms: _51  and  _52
REMARK   23  A    between atoms: _51  and  _54
REMARK   24  A    between atoms: _54  and  _55
REMARK   25  A    between atoms: _55  and  _56
REMARK   26  A    between atoms: _56  and  _57
REMARK   27  A    between atoms: _57  and  _58
REMARK   28  A    between atoms: _62  and  _64
REMARK   29  A    between atoms: _64  and  _65
REMARK   30  A    between atoms: _64  and  _67
REMARK   31  A    between atoms: _70  and  _72
REMARK   32  A    between atoms: _72  and  _73
REMARK   33  A    between atoms: _72  and  _75
REMARK   34  A    between atoms: _75  and  _76
REMARK   35  A    between atoms: _76  and  _77
REMARK   36  A    between atoms: _77  and  _78
REMARK   37  A    between atoms: _78  and  _79
REMARK   38  A    between atoms: _83  and  _85
REMARK   39  A    between atoms: _85  and  _86
REMARK   40  A    between atoms: _88  and  _90
REMARK   41  A    between atoms: _90  and  _91
REMARK   42  A    between atoms: _93  and  _95
REMARK   43  A    between atoms: _95  and  _96
REMARK   44  A    between atoms: _98  and  _100
REMARK   45  A    between atoms: _100  and  _101
REMARK   46  A    between atoms: _100  and  _103
REMARK   47  A    between atoms: _103  and  _104
REMARK   48  A    between atoms: _107  and  _109
REMARK   49  A    between atoms: _109  and  _110
REMARK   50  A    between atoms: _109  and  _112
REMARK   51  A    between atoms: _112  and  _113
REMARK   52  A    between atoms: _116  and  _118
REMARK   53  A    between atoms: _118  and  _119
REMARK   54  A    between atoms: _118  and  _121
REMARK   55  A    between atoms: _121  and  _122
REMARK   56  A    between atoms: _125  and  _127
REMARK   57  A    between atoms: _127  and  _128
REMARK   58  A    between atoms: _127  and  _130
REMARK   59  A    between atoms: _130  and  _131
REMARK   60  A    between atoms: _141  and  _143
REMARK   61  A    between atoms: _143  and  _144
REMARK   62  A    between atoms: _143  and  _146
REMARK   63  A    between atoms: _146  and  _147
REMARK   64  A    between atoms: _147  and  _148
REMARK   65  A    between atoms: _148  and  _149
REMARK   66  A    between atoms: _149  and  _150
REMARK   67  A    between atoms: _155  and  _156
REMARK   68  A    between atoms: _161  and  _163
REMARK   69  A    between atoms: _163  and  _164
REMARK   70  A    between atoms: _163  and  _166
REMARK   71  A    between atoms: _166  and  _167
REMARK   72  A    between atoms: _167  and  _168
REMARK   73  A    between atoms: _171  and  _173
REMARK   74  A    between atoms: _173  and  _174
REMARK   75  A    between atoms: _173  and  _176
REMARK   76  A    between atoms: _176  and  _177
REMARK   77  A    between atoms: _181  and  _182
REMARK   78  A    between atoms: _187  and  _189
REMARK   79  A    between atoms: _189  and  _190
REMARK   80  A    between atoms: _189  and  _192
REMARK   81  A    between atoms: _192  and  _193
REMARK   82  A    between atoms: _193  and  _194
REMARK   83  A    between atoms: _199  and  _201
REMARK   84  A    between atoms: _201  and  _202
REMARK   85  A    between atoms: _201  and  _204
REMARK   86  A    between atoms: _204  and  _205
REMARK   87  A    between atoms: _210  and  _212
REMARK   88  A    between atoms: _212  and  _213
REMARK   89  A    between atoms: _212  and  _215
REMARK   90  A    between atoms: _215  and  _216
REMARK   91  A    between atoms: _216  and  _217
REMARK   92  A    between atoms: _217  and  _218
REMARK   93  A    between atoms: _218  and  _219
REMARK   94  A    between atoms: _223  and  _225
REMARK   95  A    between atoms: _225  and  _226
REMARK   96  A    between atoms: _225  and  _228
REMARK   97  A    between atoms: _228  and  _229
REMARK   98  A    between atoms: _239  and  _241
REMARK   99  A    between atoms: _241  and  _242
REMARK  100  A    between atoms: _241  and  _244
REMARK  101  A    between atoms: _244  and  _245
REMARK  102  A    between atoms: _250  and  _251
REMARK                            x       y       z     vdW  Elec       q    Type
REMARK                         _______ _______ _______ _____ _____    ______ ____
ROOT
ATOM      1  CA  GLU A   1      21.152  11.876 -14.253  0.00  0.00    +0.134 C 
ENDROOT
BRANCH   1   2
ATOM      2  N   GLU A   1      20.791  12.040 -12.848  0.00  0.00    -0.239 NA
ATOM      3  H   GLU A   1      19.812  12.296 -12.609  0.00  0.00    +0.142 HD
ENDBRANCH   1   2
BRANCH   1   4
ATOM      4  C   GLU A   1      20.403  12.933 -15.042  0.00  0.00    +0.224 C 
ATOM      5  O   GLU A   1      19.221  12.766 -15.339  0.00  0.00    -0.287 OA
ENDBRANCH   1   4
BRANCH   1   6
ATOM      6  CB  GLU A   1      20.772  10.473 -14.736  0.00  0.00    +0.037 C 
BRANCH   6   7
ATOM      7  CG  GLU A   1      21.232  10.138 -16.154  0.00  0.00    +0.116 C 
BRANCH   7   8
ATOM      8  CD  GLU A   1      20.707   8.795 -16.639  0.00  0.00    +0.365 C 
ATOM      9  OE2 GLU A   1      20.658   7.844 -15.826  0.00  0.00    -0.246 OA
ATOM     10  OE1 GLU A   1      20.343   8.694 -17.831  0.00  0.00    -0.246 OA
ENDBRANCH   7   8
ENDBRANCH   6   7
ENDBRANCH   1   6
TORSDOF 5
REMARK  Name = ../refined-set-2016/3hl5/3hl5_pocket.pdb
REMARK  102 active torsions:
REMARK  status: ('A' for Active; 'I' for Inactive)
REMARK    1  A    between atoms: _1  and  _3
REMARK    2  A    between atoms: _3  and  _4
REMARK    3  A    between atoms: _3  and  _6
REMARK    4  A    between atoms: _9  and  _11
REMARK    5  A    between atoms: _11  and  _12
REMARK    6  A    between atoms: _11  and  _14
REMARK    7  A    between atoms: _14  and  _15
REMARK    8  A    between atoms: _18  and  _20
REMARK    9  A    between atoms: _20  and  _21
REMARK   10  A    between atoms: _20  and  _23
REMARK   11  A    between atoms: _23  and  _24
REMARK   12  A    between atoms: _30  and  _32
REMARK   13  A    between atoms: _32  and  _33
REMARK   14  A    between atoms: _32  and  _35
REMARK   15  A    between atoms: _35  and  _36
REMARK   16  A    between atoms: _36  and  _37
REMARK   17  A    between atoms: _40  and  _42
REMARK   18  A    between atoms: _42  and  _43
REMARK   19  A    between atoms: _42  and  _45
REMARK   20  A    between atoms: _45  and  _46
REMARK   21  A    between atoms: _49  and  _51
REMARK   22  A    between atoms: _51  and  _52
REMARK   23  A    between atoms: _51  and  _54
REMARK   24  A    between atoms: _54  and  _55
REMARK   25  A    between atoms: _55  and  _56
REMARK   26  A    between atoms: _56  and  _57
REMARK   27  A    between atoms: _57  and  _58
REMARK   28  A    between atoms: _62  and  _64
REMARK   29  A    between atoms: _64  and  _65
REMARK   30  A    between atoms: _64  and  _67
REMARK   31  A    between atoms: _70  and  _72
REMARK   32  A    between atoms: _72  and  _73
REMARK   33  A    between atoms: _72  and  _75
REMARK   34  A    between atoms: _75  and  _76
REMARK   35  A    between atoms: _76  and  _77
REMARK   36  A    between atoms: _77  and  _78
REMARK   37  A    between atoms: _78  and  _79
REMARK   38  A    between atoms: _83  and  _85
REMARK   39  A    between atoms: _85  and  _86
REMARK   40  A    between atoms: _88  and  _90
REMARK   41  A    between atoms: _90  and  _91
REMARK   42  A    between atoms: _93  and  _95
REMARK   43  A    between atoms: _95  and  _96
REMARK   44  A    between atoms: _98  and  _100
REMARK   45  A    between atoms: _100  and  _101
REMARK   46  A    between atoms: _100  and  _103
REMARK   47  A    between atoms: _103  and  _104
REMARK   48  A    between atoms: _107  and  _109
REMARK   49  A    between atoms: _109  and  _110
REMARK   50  A    between atoms: _109  and  _112
REMARK   51  A    between atoms: _112  and  _113
REMARK   52  A    between atoms: _116  and  _118
REMARK   53  A    between atoms: _118  and  _119
REMARK   54  A    between atoms: _118  and  _121
REMARK   55  A    between atoms: _121  and  _122
REMARK   56  A    between atoms: _125  and  _127
REMARK   57  A    between atoms: _127  and  _128
REMARK   58  A    between atoms: _127  and  _130
REMARK   59  A    between atoms: _130  and  _131
REMARK   60  A    between atoms: _141  and  _143
REMARK   61  A    between atoms: _143  and  _144
REMARK   62  A    between atoms: _143  and  _146
REMARK   63  A    between atoms: _146  and  _147
REMARK   64  A    between atoms: _147  and  _148
REMARK   65  A    between atoms: _148  and  _149
REMARK   66  A    between atoms: _149  and  _150
REMARK   67  A    between atoms: _155  and  _156
REMARK   68  A    between atoms: _161  and  _163
REMARK   69  A    between atoms: _163  and  _164
REMARK   70  A    between atoms: _163  and  _166
REMARK   71  A    between atoms: _166  and  _167
REMARK   72  A    between atoms: _167  and  _168
REMARK   73  A    between atoms: _171  and  _173
REMARK   74  A    between atoms: _173  and  _174
REMARK   75  A    between atoms: _173  and  _176
REMARK   76  A    between atoms: _176  and  _177
REMARK   77  A    between atoms: _181  and  _182
REMARK   78  A    between atoms: _187  and  _189
REMARK   79  A    between atoms: _189  and  _190
REMARK   80  A    between atoms: _189  and  _192
REMARK   81  A    between atoms: _192  and  _193
REMARK   82  A    between atoms: _193  and  _194
REMARK   83  A    between atoms: _199  and  _201
REMARK   84  A    between atoms: _201  and  _202
REMARK   85  A    between atoms: _201  and  _204
REMARK   86  A    between atoms: _204  and  _205
REMARK   87  A    between atoms: _210  and  _212
REMARK   88  A    between atoms: _212  and  _213
REMARK   89  A    between atoms: _212  and  _215
REMARK   90  A    between atoms: _215  and  _216
REMARK   91  A    between atoms: _216  and  _217
REMARK   92  A    between atoms: _217  and  _218
REMARK   93  A    between atoms: _218  and  _219
REMARK   94  A    between atoms: _223  and  _225
REMARK   95  A    between atoms: _225  and  _226
REMARK   96  A    between atoms: _225  and  _228
REMARK   97  A    between atoms: _228  and  _229
REMARK   98  A    between atoms: _239  and  _241
REMARK   99  A    between atoms: _241  and  _242
REMARK  100  A    between atoms: _241  and  _244
REMARK  101  A    between atoms: _244  and  _245
REMARK  102  A    between atoms: _250  and  _251
REMARK                            x       y       z     vdW  Elec       q    Type
REMARK                         _______ _______ _______ _____ _____    ______ ____
ROOT
ATOM      1  C   LYS A   2      14.959  12.921 -13.269  0.00  0.00    +0.241 C 
ATOM      2  O   LYS A   2      15.741  12.993 -12.316  0.00  0.00    -0.273 OA
ATOM      3  N   VAL A   3      13.642  12.789 -13.134  0.00  0.00    -0.297 N 
ATOM      4  H   VAL A   3      13.046  12.796 -13.986  0.00  0.00    +0.150 HD
ENDROOT
BRANCH   3   5
ATOM      5  CA  VAL A   3      13.007  12.635 -11.830  0.00  0.00    +0.149 C 
BRANCH   5   6
ATOM      6  C   VAL A   3      12.057  11.441 -11.861  0.00  0.00    +0.241 C 
ATOM      7  N   LYS A   4      11.665  10.971 -10.686  0.00  0.00    -0.298 N 
ATOM      8  H   LYS A   4      11.994  11.437  -9.816  0.00  0.00    +0.150 HD
ATOM      9  O   VAL A   3      11.695  10.954 -12.929  0.00  0.00    -0.273 OA
BRANCH   7  10
ATOM     10  CA  LYS A   4      10.787   9.821 -10.587  0.00  0.00    +0.137 C 
BRANCH  10  11
ATOM     11  C   LYS A   4       9.862  10.026  -9.398  0.00  0.00    +0.227 C 
ATOM     12  O   LYS A   4      10.273  10.561  -8.372  0.00  0.00    -0.286 OA
ENDBRANCH  10  11
BRANCH  10  13
ATOM     13  CB  LYS A   4      11.618   8.549 -10.415  0.00  0.00    +0.028 C 
BRANCH  13  14
ATOM     14  CG  LYS A   4      10.885   7.253 -10.714  0.00  0.00    -0.000 C 
BRANCH  14  15
ATOM     15  CD  LYS A   4      11.846   6.075 -10.616  0.00  0.00    -0.024 C 
BRANCH  15  16
ATOM     16  CE  LYS A   4      11.170   4.760 -10.963  0.00  0.00    -0.086 C 
BRANCH  16  17
ATOM     17  NZ  LYS A   4      10.994   4.595 -12.437  0.00  0.00    +0.380 N 
ATOM     18  HZ1 LYS A   4      10.529   3.685 -12.630  0.00  0.00    -0.089 HD
ATOM     19  HZ2 LYS A   4      10.406   5.370 -12.804  0.00  0.00    -0.089 HD
ATOM     20  HZ3 LYS A   4      11.925   4.615 -12.900  0.00  0.00    -0.089 HD
ENDBRANCH  16  17
ENDBRANCH  15  16
ENDBRANCH  14  15
ENDBRANCH  13  14
ENDBRANCH  10  13
ENDBRANCH   7  10
ENDBRANCH   5   6
BRANCH   5  21
ATOM     21  CB  VAL A   3      12.252  13.923 -11.370  0.00  0.00    +0.027 C 
ATOM     22  CG2 VAL A   3      13.213  15.096 -11.221  0.00  0.00    +0.002 C 
ATOM     23  CG1 VAL A   3      11.095  14.275 -12.322  0.00  0.00    +0.002 C 
ENDBRANCH   5  21
ENDBRANCH   3   5
BRANCH   1  24
ATOM     24  CA  LYS A   2      15.468  12.996 -14.702  0.00  0.00    +0.149 C 
BRANCH  24  27
ATOM     25  C   ASP A   1      15.955  15.396 -14.778  0.00  0.00    +0.239 C 
ATOM     26  O   ASP A   1      14.788  15.693 -14.521  0.00  0.00    -0.274 OA
ATOM     27  N   LYS A   2      16.377  14.135 -14.879  0.00  0.00    -0.297 N 
ATOM     28  H   LYS A   2      17.379  13.953 -15.089  0.00  0.00    +0.150 HD
BRANCH  25  29
ATOM     29  CA  ASP A   1      17.001  16.499 -14.989  0.00  0.00    +0.156 C 
BRANCH  29  30
ATOM     30  N   ASP A   1      18.182  16.049 -15.720  0.00  0.00    -0.238 NA
ATOM     31  H   ASP A   1      18.164  16.037 -16.760  0.00  0.00    +0.142 HD
ENDBRANCH  29  30
BRANCH  29  32
ATOM     32  CB  ASP A   1      16.380  17.739 -15.661  0.00  0.00    +0.140 C 
BRANCH  32  33
ATOM     33  CG  ASP A   1      15.784  17.441 -17.041  0.00  0.00    +0.367 C 
ATOM     34  OD2 ASP A   1      15.915  16.305 -17.539  0.00  0.00    -0.246 OA
ATOM     35  OD1 ASP A   1      15.177  18.359 -17.634  0.00  0.00    -0.246 OA
ENDBRANCH  32  33
ENDBRANCH  29  32
ENDBRANCH  25  29
ENDBRANCH  24  27
BRANCH  24  36
ATOM     36  CB  LYS A   2      16.147  11.676 -15.069  0.00  0.00    +0.029 C 
BRANCH  36  37
ATOM     37  CG  LYS A   2      16.285  11.431 -16.559  0.00  0.00    +0.000 C 
BRANCH  37  38
ATOM     38  CD  LYS A   2      16.776  10.021 -16.834  0.00  0.00    -0.024 C 
BRANCH  38  39
ATOM     39  CE  LYS A   2      16.741   9.714 -18.321  0.00  0.00    -0.086 C 
BRANCH  39  40
ATOM     40  NZ  LYS A   2      17.059   8.284 -18.598  0.00  0.00    +0.380 N 
ATOM     41  HZ1 LYS A   2      16.362   7.677 -18.122  0.00  0.00    -0.089 HD
ATOM     42  HZ2 LYS A   2      18.011   8.066 -18.241  0.00  0.00    -0.089 HD
ATOM     43  HZ3 LYS A   2      17.025   8.115 -19.624  0.00  0.00    -0.089 HD
ENDBRANCH  39  40
ENDBRANCH  38  39
ENDBRANCH  37  38
ENDBRANCH  36  37
ENDBRANCH  24  36
ENDBRANCH   1  24
TORSDOF 21
REMARK  Name = ../refined-set-2016/3hl5/3hl5_pocket.pdb
REMARK  102 active torsions:
REMARK  status: ('A' for Active; 'I' for Inactive)
REMARK    1  A    between atoms: _1  and  _3
REMARK    2  A    between atoms: _3  and  _4
REMARK    3  A    between atoms: _3  and  _6
REMARK    4  A    between atoms: _9  and  _11
REMARK    5  A    between atoms: _11  and  _12
REMARK    6  A    between atoms: _11  and  _14
REMARK    7  A    between atoms: _14  and  _15
REMARK    8  A    between atoms: _18  and  _20
REMARK    9  A    between atoms: _20  and  _21
REMARK   10  A    between atoms: _20  and  _23
REMARK   11  A    between atoms: _23  and  _24
REMARK   12  A    between atoms: _30  and  _32
REMARK   13  A    between atoms: _32  and  _33
REMARK   14  A    between atoms: _32  and  _35
REMARK   15  A    between atoms: _35  and  _36
REMARK   16  A    between atoms: _36  and  _37
REMARK   17  A    between atoms: _40  and  _42
REMARK   18  A    between atoms: _42  and  _43
REMARK   19  A    between atoms: _42  and  _45
REMARK   20  A    between atoms: _45  and  _46
REMARK   21  A    between atoms: _49  and  _51
REMARK   22  A    between atoms: _51  and  _52
REMARK   23  A    between atoms: _51  and  _54
REMARK   24  A    between atoms: _54  and  _55
REMARK   25  A    between atoms: _55  and  _56
REMARK   26  A    between atoms: _56  and  _57
REMARK   27  A    between atoms: _57  and  _58
REMARK   28  A    between atoms: _62  and  _64
REMARK   29  A    between atoms: _64  and  _65
REMARK   30  A    between atoms: _64  and  _67
REMARK   31  A    between atoms: _70  and  _72
REMARK   32  A    between atoms: _72  and  _73
REMARK   33  A    between atoms: _72  and  _75
REMARK   34  A    between atoms: _75  and  _76
REMARK   35  A    between atoms: _76  and  _77
REMARK   36  A    between atoms: _77  and  _78
REMARK   37  A    between atoms: _78  and  _79
REMARK   38  A    between atoms: _83  and  _85
REMARK   39  A    between atoms: _85  and  _86
REMARK   40  A    between atoms: _88  and  _90
REMARK   41  A    between atoms: _90  and  _91
REMARK   42  A    between atoms: _93  and  _95
REMARK   43  A    between atoms: _95  and  _96
REMARK   44  A    between atoms: _98  and  _100
REMARK   45  A    between atoms: _100  and  _101
REMARK   46  A    between atoms: _100  and  _103
REMARK   47  A    between atoms: _103  and  _104
REMARK   48  A    between atoms: _107  and  _109
REMARK   49  A    between atoms: _109  and  _110
REMARK   50  A    between atoms: _109  and  _112
REMARK   51  A    between atoms: _112  and  _113
REMARK   52  A    between atoms: _116  and  _118
REMARK   53  A    between atoms: _118  and  _119
REMARK   54  A    between atoms: _118  and  _121
REMARK   55  A    between atoms: _121  and  _122
REMARK   56  A    between atoms: _125  and  _127
REMARK   57  A    between atoms: _127  and  _128
REMARK   58  A    between atoms: _127  and  _130
REMARK   59  A    between atoms: _130  and  _131
REMARK   60  A    between atoms: _141  and  _143
REMARK   61  A    between atoms: _143  and  _144
REMARK   62  A    between atoms: _143  and  _146
REMARK   63  A    between atoms: _146  and  _147
REMARK   64  A    between atoms: _147  and  _148
REMARK   65  A    between atoms: _148  and  _149
REMARK   66  A    between atoms: _149  and  _150
REMARK   67  A    between atoms: _155  and  _156
REMARK   68  A    between atoms: _161  and  _163
REMARK   69  A    between atoms: _163  and  _164
REMARK   70  A    between atoms: _163  and  _166
REMARK   71  A    between atoms: _166  and  _167
REMARK   72  A    between atoms: _167  and  _168
REMARK   73  A    between atoms: _171  and  _173
REMARK   74  A    between atoms: _173  and  _174
REMARK   75  A    between atoms: _173  and  _176
REMARK   76  A    between atoms: _176  and  _177
REMARK   77  A    between atoms: _181  and  _182
REMARK   78  A    between atoms: _187  and  _189
REMARK   79  A    between atoms: _189  and  _190
REMARK   80  A    between atoms: _189  and  _192
REMARK   81  A    between atoms: _192  and  _193
REMARK   82  A    between atoms: _193  and  _194
REMARK   83  A    between atoms: _199  and  _201
REMARK   84  A    between atoms: _201  and  _202
REMARK   85  A    between atoms: _201  and  _204
REMARK   86  A    between atoms: _204  and  _205
REMARK   87  A    between atoms: _210  and  _212
REMARK   88  A    between atoms: _212  and  _213
REMARK   89  A    between atoms: _212  and  _215
REMARK   90  A    between atoms: _215  and  _216
REMARK   91  A    between atoms: _216  and  _217
REMARK   92  A    between atoms: _217  and  _218
REMARK   93  A    between atoms: _218  and  _219
REMARK   94  A    between atoms: _223  and  _225
REMARK   95  A    between atoms: _225  and  _226
REMARK   96  A    between atoms: _225  and  _228
REMARK   97  A    between atoms: _228  and  _229
REMARK   98  A    between atoms: _239  and  _241
REMARK   99  A    between atoms: _241  and  _242
REMARK  100  A    between atoms: _241  and  _244
REMARK  101  A    between atoms: _244  and  _245
REMARK  102  A    between atoms: _250  and  _251
REMARK                            x       y       z     vdW  Elec       q    Type
REMARK                         _______ _______ _______ _____ _____    ______ ____
ROOT
ATOM      1  CA  ASP A   6      13.452  17.174 -20.344  0.00  0.00    +0.160 C 
ENDROOT
BRANCH   1   2
ATOM      2  C   ASP A   6      12.387  18.203 -19.940  0.00  0.00    +0.241 C 
ATOM      3  N   TRP A   7      12.536  18.714 -18.722  0.00  0.00    -0.297 N 
ATOM      4  H   TRP A   7      13.303  18.350 -18.122  0.00  0.00    +0.150 HD
ATOM      5  O   ASP A   6      11.460  18.511 -20.698  0.00  0.00    -0.273 OA
BRANCH   3   6
ATOM      6  CA  TRP A   7      11.677  19.758 -18.189  0.00  0.00    +0.153 C 
BRANCH   6   7
ATOM      7  C   TRP A   7      11.885  21.071 -18.935  0.00  0.00    +0.241 C 
ATOM      8  O   TRP A   7      13.022  21.475 -19.196  0.00  0.00    -0.273 OA
ATOM      9  N   LYS A   8      10.777  21.721 -19.284  0.00  0.00    -0.297 N 
ATOM     10  H   LYS A   8       9.856  21.316 -19.019  0.00  0.00    +0.150 HD
BRANCH   9  11
ATOM     11  CA  LYS A   8      10.802  22.980 -20.024  0.00  0.00    +0.149 C 
BRANCH  11  12
ATOM     12  C   LYS A   8      10.607  24.171 -19.085  0.00  0.00    +0.244 C 
ATOM     13  O   LYS A   8      10.102  24.000 -17.972  0.00  0.00    -0.273 OA
ATOM     14  N   PRO A   9      11.020  25.380 -19.521  0.00  0.00    -0.273 N 
ATOM     15  CA  PRO A   9      10.864  26.569 -18.677  0.00  0.00    +0.140 C 
ATOM     16  CB  PRO A   9      11.431  27.699 -19.548  0.00  0.00    +0.030 C 
ATOM     17  CG  PRO A   9      12.306  27.021 -20.540  0.00  0.00    +0.024 C 
ATOM     18  CD  PRO A   9      11.655  25.707 -20.810  0.00  0.00    +0.094 C 
BRANCH  15  19
ATOM     19  C   PRO A   9       9.401  26.848 -18.340  0.00  0.00    +0.227 C 
ATOM     20  O   PRO A   9       8.523  26.675 -19.194  0.00  0.00    -0.286 OA
ENDBRANCH  15  19
ENDBRANCH  11  12
BRANCH  11  21
ATOM     21  CB  LYS A   8       9.739  22.976 -21.134  0.00  0.00    +0.029 C 
BRANCH  21  22
ATOM     22  CG  LYS A   8       9.939  21.904 -22.206  0.00  0.00    +0.000 C 
BRANCH  22  23
ATOM     23  CD  LYS A   8      11.289  22.036 -22.908  0.00  0.00    -0.024 C 
BRANCH  23  24
ATOM     24  CE  LYS A   8      11.451  20.996 -24.003  0.00  0.00    -0.086 C 
BRANCH  24  25
ATOM     25  NZ  LYS A   8      12.840  20.977 -24.536  0.00  0.00    +0.380 N 
ATOM     26  HZ1 LYS A   8      13.502  20.751 -23.766  0.00  0.00    -0.089 HD
ATOM     27  HZ2 LYS A   8      13.071  21.911 -24.931  0.00  0.00    -0.089 HD
ATOM     28  HZ3 LYS A   8      12.914  20.256 -25.281  0.00  0.00    -0.089 HD
ENDBRANCH  24  25
ENDBRANCH  23  24
ENDBRANCH  22  23
ENDBRANCH  21  22
ENDBRANCH  11  21
ENDBRANCH   9  11
ENDBRANCH   6   7
BRANCH   6  29
ATOM     29  CB  TRP A   7      11.956  19.945 -16.702  0.00  0.00    +0.057 C 
BRANCH  29  30
ATOM     30  CG  TRP A   7      11.485  18.797 -15.873  0.00  0.00    -0.002 A 
ATOM     31  CD2 TRP A   7      10.189  18.644 -15.280  0.00  0.00    +0.013 A 
ATOM     32  CE2 TRP A   7      10.186  17.407 -14.597  0.00  0.00    +0.056 A 
ATOM     33  CZ2 TRP A   7       9.067  16.936 -13.894  0.00  0.00    +0.017 A 
ATOM     34  CH2 TRP A   7       7.944  17.728 -13.887  0.00  0.00    +0.001 A 
ATOM     35  CZ3 TRP A   7       7.916  18.970 -14.557  0.00  0.00    +0.000 A 
ATOM     36  NE1 TRP A   7      11.421  16.838 -14.775  0.00  0.00    -0.352 N 
ATOM     37  HE1 TRP A   7      11.725  15.921 -14.391  0.00  0.00    +0.166 HD
ATOM     38  CE3 TRP A   7       9.032  19.437 -15.253  0.00  0.00    +0.001 A 
ATOM     39  CD1 TRP A   7      12.193  17.677 -15.544  0.00  0.00    +0.068 A 
ENDBRANCH  29  30
ENDBRANCH   6  29
ENDBRANCH   3   6
ENDBRANCH   1   2
BRANCH   1  41
ATOM     40  C   THR A   5      12.506  15.312 -19.049  0.00  0.00    +0.243 C 
ATOM     41  N   ASP A   6      13.543  16.093 -19.358  0.00  0.00    -0.296 N 
ATOM     42  H   ASP A   6      14.452  15.928 -18.880  0.00  0.00    +0.150 HD
ATOM     43  O   THR A   5      11.369  15.491 -19.497  0.00  0.00    -0.273 OA
BRANCH  40  44
ATOM     44  CA  THR A   5      12.778  14.166 -18.077  0.00  0.00    +0.176 C 
BRANCH  44  47
ATOM     45  C   LEU A   4      11.248  13.120 -16.484  0.00  0.00    +0.241 C 
ATOM     46  O   LEU A   4      12.020  13.258 -15.534  0.00  0.00    -0.273 OA
ATOM     47  N   THR A   5      11.519  13.523 -17.721  0.00  0.00    -0.295 N 
ATOM     48  H   THR A   5      10.806  13.374 -18.463  0.00  0.00    +0.150 HD
BRANCH  45  49
ATOM     49  CA  LEU A   4       9.894  12.466 -16.295  0.00  0.00    +0.149 C 
BRANCH  49  51
ATOM     50  C   GLY A   3       9.325  10.217 -15.522  0.00  0.00    +0.243 C 
ATOM     51  N   LEU A   4       9.993  11.355 -15.353  0.00  0.00    -0.297 N 
ATOM     52  H   LEU A   4      10.608  11.457 -14.520  0.00  0.00    +0.150 HD
ATOM     53  O   GLY A   3       8.480  10.054 -16.403  0.00  0.00    -0.273 OA
BRANCH  50  54
ATOM     54  CA  GLY A   3       9.638   9.106 -14.540  0.00  0.00    +0.176 C 
BRANCH  54  57
ATOM     55  C   GLY A   2       7.712   8.349 -13.237  0.00  0.00    +0.243 C 
ATOM     56  O   GLY A   2       7.903   9.172 -12.345  0.00  0.00    -0.273 OA
ATOM     57  N   GLY A   3       8.492   8.233 -14.311  0.00  0.00    -0.295 N 
ATOM     58  H   GLY A   3       8.276   7.494 -15.010  0.00  0.00    +0.150 HD
BRANCH  55  59
ATOM     59  CA  GLY A   2       6.548   7.385 -13.151  0.00  0.00    +0.176 C 
BRANCH  59  61
ATOM     60  C   GLY A   1       7.331   5.722 -11.541  0.00  0.00    +0.240 C 
ATOM     61  N   GLY A   2       6.490   6.701 -11.864  0.00  0.00    -0.295 N 
ATOM     62  H   GLY A   2       5.766   6.989 -11.175  0.00  0.00    +0.150 HD
ATOM     63  O   GLY A   1       8.253   5.363 -12.271  0.00  0.00    -0.274 OA
BRANCH  60  64
ATOM     64  CA  GLY A   1       7.109   5.059 -10.192  0.00  0.00    +0.169 C 
BRANCH  64  65
ATOM     65  N   GLY A   1       5.890   5.510  -9.509  0.00  0.00    -0.236 NA
ATOM     66  H   GLY A   1       5.968   6.198  -8.733  0.00  0.00    +0.142 HD
ENDBRANCH  64  65
ENDBRANCH  60  64
ENDBRANCH  59  61
ENDBRANCH  55  59
ENDBRANCH  54  57
ENDBRANCH  50  54
ENDBRANCH  49  51
BRANCH  49  67
ATOM     67  CB  LEU A   4       8.877  13.520 -15.821  0.00  0.00    +0.029 C 
BRANCH  67  68
ATOM     68  CG  LEU A   4       7.386  13.152 -15.857  0.00  0.00    +0.002 C 
ATOM     69  CD2 LEU A   4       6.573  14.231 -15.155  0.00  0.00    +0.000 C 
ATOM     70  CD1 LEU A   4       6.888  12.938 -17.287  0.00  0.00    +0.000 C 
ENDBRANCH  67  68
ENDBRANCH  49  67
ENDBRANCH  45  49
ENDBRANCH  44  47
BRANCH  44  71
ATOM     71  CB  THR A   5      13.785  13.140 -18.682  0.00  0.00    +0.137 C 
ATOM     72  CG2 THR A   5      13.331  12.639 -20.051  0.00  0.00    +0.034 C 
BRANCH  71  73
ATOM     73  OG1 THR A   5      15.076  13.747 -18.808  0.00  0.00    -0.382 OA
ATOM     74  HG1 THR A   5      15.394  14.032 -17.915  0.00  0.00    +0.210 HD
ENDBRANCH  71  73
ENDBRANCH  44  71
ENDBRANCH  40  44
ENDBRANCH   1  41
BRANCH   1  75
ATOM     75  CB  ASP A   6      13.212  16.608 -21.758  0.00  0.00    +0.143 C 
BRANCH  75  76
ATOM     76  CG  ASP A   6      13.593  17.584 -22.862  0.00  0.00    +0.367 C 
ATOM     77  OD2 ASP A   6      14.535  18.385 -22.669  0.00  0.00    -0.246 OA
ATOM     78  OD1 ASP A   6      12.955  17.537 -23.937  0.00  0.00    -0.246 OA
ENDBRANCH  75  76
ENDBRANCH   1  75
TORSDOF 30
REMARK  Name = ../refined-set-2016/3hl5/3hl5_pocket.pdb
REMARK  102 active torsions:
REMARK  status: ('A' for Active; 'I' for Inactive)
REMARK    1  A    between atoms: _1  and  _3
REMARK    2  A    between atoms: _3  and  _4
REMARK    3  A    between atoms: _3  and  _6
REMARK    4  A    between atoms: _9  and  _11
REMARK    5  A    between atoms: _11  and  _12
REMARK    6  A    between atoms: _11  and  _14
REMARK    7  A    between atoms: _14  and  _15
REMARK    8  A    between atoms: _18  and  _20
REMARK    9  A    between atoms: _20  and  _21
REMARK   10  A    between atoms: _20  and  _23
REMARK   11  A    between atoms: _23  and  _24
REMARK   12  A    between atoms: _30  and  _32
REMARK   13  A    between atoms: _32  and  _33
REMARK   14  A    between atoms: _32  and  _35
REMARK   15  A    between atoms: _35  and  _36
REMARK   16  A    between atoms: _36  and  _37
REMARK   17  A    between atoms: _40  and  _42
REMARK   18  A    between atoms: _42  and  _43
REMARK   19  A    between atoms: _42  and  _45
REMARK   20  A    between atoms: _45  and  _46
REMARK   21  A    between atoms: _49  and  _51
REMARK   22  A    between atoms: _51  and  _52
REMARK   23  A    between atoms: _51  and  _54
REMARK   24  A    between atoms: _54  and  _55
REMARK   25  A    between atoms: _55  and  _56
REMARK   26  A    between atoms: _56  and  _57
REMARK   27  A    between atoms: _57  and  _58
REMARK   28  A    between atoms: _62  and  _64
REMARK   29  A    between atoms: _64  and  _65
REMARK   30  A    between atoms: _64  and  _67
REMARK   31  A    between atoms: _70  and  _72
REMARK   32  A    between atoms: _72  and  _73
REMARK   33  A    between atoms: _72  and  _75
REMARK   34  A    between atoms: _75  and  _76
REMARK   35  A    between atoms: _76  and  _77
REMARK   36  A    between atoms: _77  and  _78
REMARK   37  A    between atoms: _78  and  _79
REMARK   38  A    between atoms: _83  and  _85
REMARK   39  A    between atoms: _85  and  _86
REMARK   40  A    between atoms: _88  and  _90
REMARK   41  A    between atoms: _90  and  _91
REMARK   42  A    between atoms: _93  and  _95
REMARK   43  A    between atoms: _95  and  _96
REMARK   44  A    between atoms: _98  and  _100
REMARK   45  A    between atoms: _100  and  _101
REMARK   46  A    between atoms: _100  and  _103
REMARK   47  A    between atoms: _103  and  _104
REMARK   48  A    between atoms: _107  and  _109
REMARK   49  A    between atoms: _109  and  _110
REMARK   50  A    between atoms: _109  and  _112
REMARK   51  A    between atoms: _112  and  _113
REMARK   52  A    between atoms: _116  and  _118
REMARK   53  A    between atoms: _118  and  _119
REMARK   54  A    between atoms: _118  and  _121
REMARK   55  A    between atoms: _121  and  _122
REMARK   56  A    between atoms: _125  and  _127
REMARK   57  A    between atoms: _127  and  _128
REMARK   58  A    between atoms: _127  and  _130
REMARK   59  A    between atoms: _130  and  _131
REMARK   60  A    between atoms: _141  and  _143
REMARK   61  A    between atoms: _143  and  _144
REMARK   62  A    between atoms: _143  and  _146
REMARK   63  A    between atoms: _146  and  _147
REMARK   64  A    between atoms: _147  and  _148
REMARK   65  A    between atoms: _148  and  _149
REMARK   66  A    between atoms: _149  and  _150
REMARK   67  A    between atoms: _155  and  _156
REMARK   68  A    between atoms: _161  and  _163
REMARK   69  A    between atoms: _163  and  _164
REMARK   70  A    between atoms: _163  and  _166
REMARK   71  A    between atoms: _166  and  _167
REMARK   72  A    between atoms: _167  and  _168
REMARK   73  A    between atoms: _171  and  _173
REMARK   74  A    between atoms: _173  and  _174
REMARK   75  A    between atoms: _173  and  _176
REMARK   76  A    between atoms: _176  and  _177
REMARK   77  A    between atoms: _181  and  _182
REMARK   78  A    between atoms: _187  and  _189
REMARK   79  A    between atoms: _189  and  _190
REMARK   80  A    between atoms: _189  and  _192
REMARK   81  A    between atoms: _192  and  _193
REMARK   82  A    between atoms: _193  and  _194
REMARK   83  A    between atoms: _199  and  _201
REMARK   84  A    between atoms: _201  and  _202
REMARK   85  A    between atoms: _201  and  _204
REMARK   86  A    between atoms: _204  and  _205
REMARK   87  A    between atoms: _210  and  _212
REMARK   88  A    between atoms: _212  and  _213
REMARK   89  A    between atoms: _212  and  _215
REMARK   90  A    between atoms: _215  and  _216
REMARK   91  A    between atoms: _216  and  _217
REMARK   92  A    between atoms: _217  and  _218
REMARK   93  A    between atoms: _218  and  _219
REMARK   94  A    between atoms: _223  and  _225
REMARK   95  A    between atoms: _225  and  _226
REMARK   96  A    between atoms: _225  and  _228
REMARK   97  A    between atoms: _228  and  _229
REMARK   98  A    between atoms: _239  and  _241
REMARK   99  A    between atoms: _241  and  _242
REMARK  100  A    between atoms: _241  and  _244
REMARK  101  A    between atoms: _244  and  _245
REMARK  102  A    between atoms: _250  and  _251
REMARK                            x       y       z     vdW  Elec       q    Type
REMARK                         _______ _______ _______ _____ _____    ______ ____
ROOT
ATOM      1  CA  ASP A   2       4.635  22.934 -13.278  0.00  0.00    +0.160 C 
ENDROOT
BRANCH   1   2
ATOM      2  C   ASP A   2       4.658  21.428 -13.006  0.00  0.00    +0.244 C 
ATOM      3  N   PRO A   3       5.395  21.001 -11.958  0.00  0.00    -0.273 N 
ATOM      4  CD  PRO A   3       6.184  21.858 -11.050  0.00  0.00    +0.094 C 
ATOM      5  CG  PRO A   3       7.102  20.874 -10.373  0.00  0.00    +0.024 C 
ATOM      6  CB  PRO A   3       6.301  19.623 -10.285  0.00  0.00    +0.030 C 
ATOM      7  CA  PRO A   3       5.531  19.583 -11.611  0.00  0.00    +0.140 C 
ATOM      8  O   ASP A   2       4.038  20.658 -13.744  0.00  0.00    -0.273 OA
BRANCH   7   9
ATOM      9  C   PRO A   3       4.201  18.834 -11.450  0.00  0.00    +0.227 C 
ATOM     10  O   PRO A   3       4.063  17.727 -11.969  0.00  0.00    -0.286 OA
ENDBRANCH   7   9
ENDBRANCH   1   2
BRANCH   1  13
ATOM     11  C   GLU A   1       6.293  23.705 -14.897  0.00  0.00    +0.238 C 
ATOM     12  O   GLU A   1       7.153  23.902 -14.039  0.00  0.00    -0.274 OA
ATOM     13  N   ASP A   2       5.086  23.219 -14.633  0.00  0.00    -0.297 N 
ATOM     14  H   ASP A   2       4.437  23.035 -15.425  0.00  0.00    +0.150 HD
BRANCH  11  15
ATOM     15  CA  GLU A   1       6.569  23.994 -16.361  0.00  0.00    +0.145 C 
BRANCH  15  16
ATOM     16  N   GLU A   1       7.385  25.196 -16.548  0.00  0.00    -0.238 NA
ATOM     17  H   GLU A   1       8.386  25.095 -16.810  0.00  0.00    +0.142 HD
ENDBRANCH  15  16
BRANCH  15  18
ATOM     18  CB  GLU A   1       7.220  22.772 -16.998  0.00  0.00    +0.038 C 
BRANCH  18  19
ATOM     19  CG  GLU A   1       7.039  22.709 -18.491  0.00  0.00    +0.116 C 
BRANCH  19  20
ATOM     20  CD  GLU A   1       7.291  21.332 -19.042  0.00  0.00    +0.365 C 
ATOM     21  OE2 GLU A   1       8.237  20.650 -18.577  0.00  0.00    -0.246 OA
ATOM     22  OE1 GLU A   1       6.537  20.935 -19.952  0.00  0.00    -0.246 OA
ENDBRANCH  19  20
ENDBRANCH  18  19
ENDBRANCH  15  18
ENDBRANCH  11  15
ENDBRANCH   1  13
BRANCH   1  23
ATOM     23  CB  ASP A   2       3.236  23.520 -13.052  0.00  0.00    +0.143 C 
BRANCH  23  24
ATOM     24  CG  ASP A   2       2.702  23.232 -11.661  0.00  0.00    +0.367 C 
ATOM     25  OD2 ASP A   2       2.953  24.041 -10.744  0.00  0.00    -0.246 OA
ATOM     26  OD1 ASP A   2       2.059  22.182 -11.479  0.00  0.00    -0.246 OA
ENDBRANCH  23  24
ENDBRANCH   1  23
TORSDOF 10
REMARK  Name = ../refined-set-2016/3hl5/3hl5_pocket.pdb
REMARK  102 active torsions:
REMARK  status: ('A' for Active; 'I' for Inactive)
REMARK    1  A    between atoms: _1  and  _3
REMARK    2  A    between atoms: _3  and  _4
REMARK    3  A    between atoms: _3  and  _6
REMARK    4  A    between atoms: _9  and  _11
REMARK    5  A    between atoms: _11  and  _12
REMARK    6  A    between atoms: _11  and  _14
REMARK    7  A    between atoms: _14  and  _15
REMARK    8  A    between atoms: _18  and  _20
REMARK    9  A    between atoms: _20  and  _21
REMARK   10  A    between atoms: _20  and  _23
REMARK   11  A    between atoms: _23  and  _24
REMARK   12  A    between atoms: _30  and  _32
REMARK   13  A    between atoms: _32  and  _33
REMARK   14  A    between atoms: _32  and  _35
REMARK   15  A    between atoms: _35  and  _36
REMARK   16  A    between atoms: _36  and  _37
REMARK   17  A    between atoms: _40  and  _42
REMARK   18  A    between atoms: _42  and  _43
REMARK   19  A    between atoms: _42  and  _45
REMARK   20  A    between atoms: _45  and  _46
REMARK   21  A    between atoms: _49  and  _51
REMARK   22  A    between atoms: _51  and  _52
REMARK   23  A    between atoms: _51  and  _54
REMARK   24  A    between atoms: _54  and  _55
REMARK   25  A    between atoms: _55  and  _56
REMARK   26  A    between atoms: _56  and  _57
REMARK   27  A    between atoms: _57  and  _58
REMARK   28  A    between atoms: _62  and  _64
REMARK   29  A    between atoms: _64  and  _65
REMARK   30  A    between atoms: _64  and  _67
REMARK   31  A    between atoms: _70  and  _72
REMARK   32  A    between atoms: _72  and  _73
REMARK   33  A    between atoms: _72  and  _75
REMARK   34  A    between atoms: _75  and  _76
REMARK   35  A    between atoms: _76  and  _77
REMARK   36  A    between atoms: _77  and  _78
REMARK   37  A    between atoms: _78  and  _79
REMARK   38  A    between atoms: _83  and  _85
REMARK   39  A    between atoms: _85  and  _86
REMARK   40  A    between atoms: _88  and  _90
REMARK   41  A    between atoms: _90  and  _91
REMARK   42  A    between atoms: _93  and  _95
REMARK   43  A    between atoms: _95  and  _96
REMARK   44  A    between atoms: _98  and  _100
REMARK   45  A    between atoms: _100  and  _101
REMARK   46  A    between atoms: _100  and  _103
REMARK   47  A    between atoms: _103  and  _104
REMARK   48  A    between atoms: _107  and  _109
REMARK   49  A    between atoms: _109  and  _110
REMARK   50  A    between atoms: _109  and  _112
REMARK   51  A    between atoms: _112  and  _113
REMARK   52  A    between atoms: _116  and  _118
REMARK   53  A    between atoms: _118  and  _119
REMARK   54  A    between atoms: _118  and  _121
REMARK   55  A    between atoms: _121  and  _122
REMARK   56  A    between atoms: _125  and  _127
REMARK   57  A    between atoms: _127  and  _128
REMARK   58  A    between atoms: _127  and  _130
REMARK   59  A    between atoms: _130  and  _131
REMARK   60  A    between atoms: _141  and  _143
REMARK   61  A    between atoms: _143  and  _144
REMARK   62  A    between atoms: _143  and  _146
REMARK   63  A    between atoms: _146  and  _147
REMARK   64  A    between atoms: _147  and  _148
REMARK   65  A    between atoms: _148  and  _149
REMARK   66  A    between atoms: _149  and  _150
REMARK   67  A    between atoms: _155  and  _156
REMARK   68  A    between atoms: _161  and  _163
REMARK   69  A    between atoms: _163  and  _164
REMARK   70  A    between atoms: _163  and  _166
REMARK   71  A    between atoms: _166  and  _167
REMARK   72  A    between atoms: _167  and  _168
REMARK   73  A    between atoms: _171  and  _173
REMARK   74  A    between atoms: _173  and  _174
REMARK   75  A    between atoms: _173  and  _176
REMARK   76  A    between atoms: _176  and  _177
REMARK   77  A    between atoms: _181  and  _182
REMARK   78  A    between atoms: _187  and  _189
REMARK   79  A    between atoms: _189  and  _190
REMARK   80  A    between atoms: _189  and  _192
REMARK   81  A    between atoms: _192  and  _193
REMARK   82  A    between atoms: _193  and  _194
REMARK   83  A    between atoms: _199  and  _201
REMARK   84  A    between atoms: _201  and  _202
REMARK   85  A    between atoms: _201  and  _204
REMARK   86  A    between atoms: _204  and  _205
REMARK   87  A    between atoms: _210  and  _212
REMARK   88  A    between atoms: _212  and  _213
REMARK   89  A    between atoms: _212  and  _215
REMARK   90  A    between atoms: _215  and  _216
REMARK   91  A    between atoms: _216  and  _217
REMARK   92  A    between atoms: _217  and  _218
REMARK   93  A    between atoms: _218  and  _219
REMARK   94  A    between atoms: _223  and  _225
REMARK   95  A    between atoms: _225  and  _226
REMARK   96  A    between atoms: _225  and  _228
REMARK   97  A    between atoms: _228  and  _229
REMARK   98  A    between atoms: _239  and  _241
REMARK   99  A    between atoms: _241  and  _242
REMARK  100  A    between atoms: _241  and  _244
REMARK  101  A    between atoms: _244  and  _245
REMARK  102  A    between atoms: _250  and  _251
REMARK                            x       y       z     vdW  Elec       q    Type
REMARK                         _______ _______ _______ _____ _____    ______ ____
ROOT
ATOM      1  C   GLN A   1       2.874  15.969 -15.117  0.00  0.00    +0.238 C 
ATOM      2  N   HIS A   2       2.883  15.894 -13.787  0.00  0.00    -0.298 N 
ATOM      3  H   HIS A   2       3.101  16.750 -13.238  0.00  0.00    +0.150 HD
ATOM      4  O   GLN A   1       2.683  14.996 -15.847  0.00  0.00    -0.274 OA
ENDROOT
BRANCH   1   5
ATOM      5  CA  GLN A   1       3.112  17.352 -15.720  0.00  0.00    +0.145 C 
BRANCH   5   6
ATOM      6  N   GLN A   1       2.421  18.395 -14.952  0.00  0.00    -0.238 NA
ATOM      7  H   GLN A   1       2.988  19.104 -14.445  0.00  0.00    +0.142 HD
ENDBRANCH   5   6
BRANCH   5   8
ATOM      8  CB  GLN A   1       4.611  17.642 -15.823  0.00  0.00    +0.036 C 
BRANCH   8   9
ATOM      9  CG  GLN A   1       4.953  18.878 -16.654  0.00  0.00    +0.087 C 
BRANCH   9  10
ATOM     10  CD  GLN A   1       4.447  18.790 -18.082  0.00  0.00    +0.219 C 
ATOM     11  NE2 GLN A   1       3.521  19.672 -18.433  0.00  0.00    -0.329 N 
ATOM     12 HE21 GLN A   1       3.182  20.372 -17.743  0.00  0.00    +0.145 HD
ATOM     13 HE22 GLN A   1       3.134  19.663 -19.398  0.00  0.00    +0.145 HD
ATOM     14  OE1 GLN A   1       4.883  17.940 -18.860  0.00  0.00    -0.275 OA
ENDBRANCH   9  10
ENDBRANCH   8   9
ENDBRANCH   5   8
ENDBRANCH   1   5
BRANCH   2  15
ATOM     15  CA  HIS A   2       2.597  14.652 -13.073  0.00  0.00    +0.143 C 
BRANCH  15  16
ATOM     16  C   HIS A   2       1.216  14.136 -13.471  0.00  0.00    +0.227 C 
ATOM     17  O   HIS A   2       1.068  12.977 -13.858  0.00  0.00    -0.286 OA
ENDBRANCH  15  16
BRANCH  15  18
ATOM     18  CB  HIS A   2       2.648  14.876 -11.556  0.00  0.00    +0.075 C 
BRANCH  18  19
ATOM     19  CG  HIS A   2       2.943  13.640 -10.762  0.00  0.00    +0.082 A 
ATOM     20  ND1 HIS A   2       3.437  13.688  -9.476  0.00  0.00    -0.227 NA
ATOM     21  CE1 HIS A   2       3.601  12.458  -9.021  0.00  0.00    +0.199 A 
ATOM     22  NE2 HIS A   2       3.240  11.612  -9.970  0.00  0.00    -0.221 NA
ATOM     23  CD2 HIS A   2       2.822  12.325 -11.069  0.00  0.00    +0.115 A 
ENDBRANCH  18  19
ENDBRANCH  15  18
ENDBRANCH   2  15
TORSDOF 9
REMARK  Name = ../refined-set-2016/3hl5/3hl5_pocket.pdb
REMARK  102 active torsions:
REMARK  status: ('A' for Active; 'I' for Inactive)
REMARK    1  A    between atoms: _1  and  _3
REMARK    2  A    between atoms: _3  and  _4
REMARK    3  A    between atoms: _3  and  _6
REMARK    4  A    between atoms: _9  and  _11
REMARK    5  A    between atoms: _11  and  _12
REMARK    6  A    between atoms: _11  and  _14
REMARK    7  A    between atoms: _14  and  _15
REMARK    8  A    between atoms: _18  and  _20
REMARK    9  A    between atoms: _20  and  _21
REMARK   10  A    between atoms: _20  and  _23
REMARK   11  A    between atoms: _23  and  _24
REMARK   12  A    between atoms: _30  and  _32
REMARK   13  A    between atoms: _32  and  _33
REMARK   14  A    between atoms: _32  and  _35
REMARK   15  A    between atoms: _35  and  _36
REMARK   16  A    between atoms: _36  and  _37
REMARK   17  A    between atoms: _40  and  _42
REMARK   18  A    between atoms: _42  and  _43
REMARK   19  A    between atoms: _42  and  _45
REMARK   20  A    between atoms: _45  and  _46
REMARK   21  A    between atoms: _49  and  _51
REMARK   22  A    between atoms: _51  and  _52
REMARK   23  A    between atoms: _51  and  _54
REMARK   24  A    between atoms: _54  and  _55
REMARK   25  A    between atoms: _55  and  _56
REMARK   26  A    between atoms: _56  and  _57
REMARK   27  A    between atoms: _57  and  _58
REMARK   28  A    between atoms: _62  and  _64
REMARK   29  A    between atoms: _64  and  _65
REMARK   30  A    between atoms: _64  and  _67
REMARK   31  A    between atoms: _70  and  _72
REMARK   32  A    between atoms: _72  and  _73
REMARK   33  A    between atoms: _72  and  _75
REMARK   34  A    between atoms: _75  and  _76
REMARK   35  A    between atoms: _76  and  _77
REMARK   36  A    between atoms: _77  and  _78
REMARK   37  A    between atoms: _78  and  _79
REMARK   38  A    between atoms: _83  and  _85
REMARK   39  A    between atoms: _85  and  _86
REMARK   40  A    between atoms: _88  and  _90
REMARK   41  A    between atoms: _90  and  _91
REMARK   42  A    between atoms: _93  and  _95
REMARK   43  A    between atoms: _95  and  _96
REMARK   44  A    between atoms: _98  and  _100
REMARK   45  A    between atoms: _100  and  _101
REMARK   46  A    between atoms: _100  and  _103
REMARK   47  A    between atoms: _103  and  _104
REMARK   48  A    between atoms: _107  and  _109
REMARK   49  A    between atoms: _109  and  _110
REMARK   50  A    between atoms: _109  and  _112
REMARK   51  A    between atoms: _112  and  _113
REMARK   52  A    between atoms: _116  and  _118
REMARK   53  A    between atoms: _118  and  _119
REMARK   54  A    between atoms: _118  and  _121
REMARK   55  A    between atoms: _121  and  _122
REMARK   56  A    between atoms: _125  and  _127
REMARK   57  A    between atoms: _127  and  _128
REMARK   58  A    between atoms: _127  and  _130
REMARK   59  A    between atoms: _130  and  _131
REMARK   60  A    between atoms: _141  and  _143
REMARK   61  A    between atoms: _143  and  _144
REMARK   62  A    between atoms: _143  and  _146
REMARK   63  A    between atoms: _146  and  _147
REMARK   64  A    between atoms: _147  and  _148
REMARK   65  A    between atoms: _148  and  _149
REMARK   66  A    between atoms: _149  and  _150
REMARK   67  A    between atoms: _155  and  _156
REMARK   68  A    between atoms: _161  and  _163
REMARK   69  A    between atoms: _163  and  _164
REMARK   70  A    between atoms: _163  and  _166
REMARK   71  A    between atoms: _166  and  _167
REMARK   72  A    between atoms: _167  and  _168
REMARK   73  A    between atoms: _171  and  _173
REMARK   74  A    between atoms: _173  and  _174
REMARK   75  A    between atoms: _173  and  _176
REMARK   76  A    between atoms: _176  and  _177
REMARK   77  A    between atoms: _181  and  _182
REMARK   78  A    between atoms: _187  and  _189
REMARK   79  A    between atoms: _189  and  _190
REMARK   80  A    between atoms: _189  and  _192
REMARK   81  A    between atoms: _192  and  _193
REMARK   82  A    between atoms: _193  and  _194
REMARK   83  A    between atoms: _199  and  _201
REMARK   84  A    between atoms: _201  and  _202
REMARK   85  A    between atoms: _201  and  _204
REMARK   86  A    between atoms: _204  and  _205
REMARK   87  A    between atoms: _210  and  _212
REMARK   88  A    between atoms: _212  and  _213
REMARK   89  A    between atoms: _212  and  _215
REMARK   90  A    between atoms: _215  and  _216
REMARK   91  A    between atoms: _216  and  _217
REMARK   92  A    between atoms: _217  and  _218
REMARK   93  A    between atoms: _218  and  _219
REMARK   94  A    between atoms: _223  and  _225
REMARK   95  A    between atoms: _225  and  _226
REMARK   96  A    between atoms: _225  and  _228
REMARK   97  A    between atoms: _228  and  _229
REMARK   98  A    between atoms: _239  and  _241
REMARK   99  A    between atoms: _241  and  _242
REMARK  100  A    between atoms: _241  and  _244
REMARK  101  A    between atoms: _244  and  _245
REMARK  102  A    between atoms: _250  and  _251
REMARK                            x       y       z     vdW  Elec       q    Type
REMARK                         _______ _______ _______ _____ _____    ______ ____
ROOT
ATOM      1  CA  TRP A   2       1.465  11.768 -17.841  0.00  0.00    +0.153 C 
ENDROOT
BRANCH   1   3
ATOM      2  C   LYS A   1      -0.311  13.437 -17.912  0.00  0.00    +0.238 C 
ATOM      3  N   TRP A   2       0.846  13.019 -17.411  0.00  0.00    -0.297 N 
ATOM      4  H   TRP A   2       1.325  13.599 -16.692  0.00  0.00    +0.150 HD
ATOM      5  O   LYS A   1      -1.019  12.742 -18.639  0.00  0.00    -0.274 OA
BRANCH   2   6
ATOM      6  CA  LYS A   1      -0.753  14.841 -17.506  0.00  0.00    +0.145 C 
BRANCH   6   7
ATOM      7  N   LYS A   1      -0.662  15.043 -16.063  0.00  0.00    -0.238 NA
ATOM      8  H   LYS A   1      -0.037  15.789 -15.698  0.00  0.00    +0.142 HD
ENDBRANCH   6   7
BRANCH   6   9
ATOM      9  CB  LYS A   1       0.095  15.890 -18.225  0.00  0.00    +0.026 C 
BRANCH   9  10
ATOM     10  CG  LYS A   1       0.042  15.836 -19.745  0.00  0.00    -0.000 C 
BRANCH  10  11
ATOM     11  CD  LYS A   1       0.700  17.089 -20.301  0.00  0.00    -0.024 C 
BRANCH  11  12
ATOM     12  CE  LYS A   1       0.603  17.161 -21.808  0.00  0.00    -0.086 C 
BRANCH  12  13
ATOM     13  NZ  LYS A   1       1.821  16.602 -22.448  0.00  0.00    +0.380 N 
ATOM     14  HZ1 LYS A   1       2.653  17.145 -22.141  0.00  0.00    -0.089 HD
ATOM     15  HZ2 LYS A   1       1.933  15.607 -22.168  0.00  0.00    -0.089 HD
ATOM     16  HZ3 LYS A   1       1.727  16.664 -23.482  0.00  0.00    -0.089 HD
ENDBRANCH  12  13
ENDBRANCH  11  12
ENDBRANCH  10  11
ENDBRANCH   9  10
ENDBRANCH   6   9
ENDBRANCH   2   6
ENDBRANCH   1   3
BRANCH   1  17
ATOM     17  C   TRP A   2       1.040  10.566 -17.002  0.00  0.00    +0.241 C 
ATOM     18  N   TYR A   3       0.723  10.812 -15.733  0.00  0.00    -0.298 N 
ATOM     19  H   TYR A   3       0.701  11.798 -15.403  0.00  0.00    +0.150 HD
ATOM     20  O   TRP A   2       0.985   9.445 -17.501  0.00  0.00    -0.273 OA
BRANCH  18  21
ATOM     21  CA  TYR A   3       0.404   9.743 -14.785  0.00  0.00    +0.141 C 
BRANCH  21  22
ATOM     22  C   TYR A   3      -0.891  10.010 -13.995  0.00  0.00    +0.227 C 
ATOM     23  O   TYR A   3      -0.876  10.043 -12.756  0.00  0.00    -0.286 OA
ENDBRANCH  21  22
BRANCH  21  24
ATOM     24  CB  TYR A   3       1.601   9.516 -13.845  0.00  0.00    +0.054 C 
BRANCH  24  25
ATOM     25  CG  TYR A   3       2.896   9.253 -14.585  0.00  0.00    -0.020 A 
ATOM     26  CD2 TYR A   3       3.926  10.205 -14.609  0.00  0.00    -0.001 A 
ATOM     27  CE2 TYR A   3       5.116   9.959 -15.308  0.00  0.00    +0.036 A 
ATOM     28  CZ  TYR A   3       5.270   8.763 -16.000  0.00  0.00    +0.134 A 
ATOM     29  CE1 TYR A   3       4.260   7.815 -15.991  0.00  0.00    +0.036 A 
ATOM     30  CD1 TYR A   3       3.084   8.064 -15.291  0.00  0.00    -0.001 A 
BRANCH  28  31
ATOM     31  OH  TYR A   3       6.431   8.499 -16.693  0.00  0.00    -0.506 OA
ATOM     32  HH  TYR A   3       7.049   9.267 -16.604  0.00  0.00    +0.292 HD
ENDBRANCH  28  31
ENDBRANCH  24  25
ENDBRANCH  21  24
ENDBRANCH  18  21
ENDBRANCH   1  17
BRANCH   1  33
ATOM     33  CB  TRP A   2       2.991  11.916 -17.856  0.00  0.00    +0.057 C 
BRANCH  33  34
ATOM     34  CG  TRP A   2       3.450  12.902 -18.900  0.00  0.00    -0.002 A 
ATOM     35  CD1 TRP A   2       3.918  14.167 -18.690  0.00  0.00    +0.068 A 
ATOM     36  NE1 TRP A   2       4.225  14.766 -19.894  0.00  0.00    -0.352 N 
ATOM     37  HE1 TRP A   2       4.606  15.727 -20.013  0.00  0.00    +0.166 HD
ATOM     38  CE2 TRP A   2       3.946  13.887 -20.907  0.00  0.00    +0.056 A 
ATOM     39  CZ2 TRP A   2       4.079  14.036 -22.291  0.00  0.00    +0.017 A 
ATOM     40  CH2 TRP A   2       3.717  12.974 -23.076  0.00  0.00    +0.001 A 
ATOM     41  CZ3 TRP A   2       3.224  11.781 -22.523  0.00  0.00    +0.000 A 
ATOM     42  CE3 TRP A   2       3.086  11.634 -21.145  0.00  0.00    +0.001 A 
ATOM     43  CD2 TRP A   2       3.450  12.703 -20.317  0.00  0.00    +0.013 A 
ENDBRANCH  33  34
ENDBRANCH   1  33
TORSDOF 16
REMARK  Name = ../refined-set-2016/3hl5/3hl5_pocket.pdb
REMARK  102 active torsions:
REMARK  status: ('A' for Active; 'I' for Inactive)
REMARK    1  A    between atoms: _1  and  _3
REMARK    2  A    between atoms: _3  and  _4
REMARK    3  A    between atoms: _3  and  _6
REMARK    4  A    between atoms: _9  and  _11
REMARK    5  A    between atoms: _11  and  _12
REMARK    6  A    between atoms: _11  and  _14
REMARK    7  A    between atoms: _14  and  _15
REMARK    8  A    between atoms: _18  and  _20
REMARK    9  A    between atoms: _20  and  _21
REMARK   10  A    between atoms: _20  and  _23
REMARK   11  A    between atoms: _23  and  _24
REMARK   12  A    between atoms: _30  and  _32
REMARK   13  A    between atoms: _32  and  _33
REMARK   14  A    between atoms: _32  and  _35
REMARK   15  A    between atoms: _35  and  _36
REMARK   16  A    between atoms: _36  and  _37
REMARK   17  A    between atoms: _40  and  _42
REMARK   18  A    between atoms: _42  and  _43
REMARK   19  A    between atoms: _42  and  _45
REMARK   20  A    between atoms: _45  and  _46
REMARK   21  A    between atoms: _49  and  _51
REMARK   22  A    between atoms: _51  and  _52
REMARK   23  A    between atoms: _51  and  _54
REMARK   24  A    between atoms: _54  and  _55
REMARK   25  A    between atoms: _55  and  _56
REMARK   26  A    between atoms: _56  and  _57
REMARK   27  A    between atoms: _57  and  _58
REMARK   28  A    between atoms: _62  and  _64
REMARK   29  A    between atoms: _64  and  _65
REMARK   30  A    between atoms: _64  and  _67
REMARK   31  A    between atoms: _70  and  _72
REMARK   32  A    between atoms: _72  and  _73
REMARK   33  A    between atoms: _72  and  _75
REMARK   34  A    between atoms: _75  and  _76
REMARK   35  A    between atoms: _76  and  _77
REMARK   36  A    between atoms: _77  and  _78
REMARK   37  A    between atoms: _78  and  _79
REMARK   38  A    between atoms: _83  and  _85
REMARK   39  A    between atoms: _85  and  _86
REMARK   40  A    between atoms: _88  and  _90
REMARK   41  A    between atoms: _90  and  _91
REMARK   42  A    between atoms: _93  and  _95
REMARK   43  A    between atoms: _95  and  _96
REMARK   44  A    between atoms: _98  and  _100
REMARK   45  A    between atoms: _100  and  _101
REMARK   46  A    between atoms: _100  and  _103
REMARK   47  A    between atoms: _103  and  _104
REMARK   48  A    between atoms: _107  and  _109
REMARK   49  A    between atoms: _109  and  _110
REMARK   50  A    between atoms: _109  and  _112
REMARK   51  A    between atoms: _112  and  _113
REMARK   52  A    between atoms: _116  and  _118
REMARK   53  A    between atoms: _118  and  _119
REMARK   54  A    between atoms: _118  and  _121
REMARK   55  A    between atoms: _121  and  _122
REMARK   56  A    between atoms: _125  and  _127
REMARK   57  A    between atoms: _127  and  _128
REMARK   58  A    between atoms: _127  and  _130
REMARK   59  A    between atoms: _130  and  _131
REMARK   60  A    between atoms: _141  and  _143
REMARK   61  A    between atoms: _143  and  _144
REMARK   62  A    between atoms: _143  and  _146
REMARK   63  A    between atoms: _146  and  _147
REMARK   64  A    between atoms: _147  and  _148
REMARK   65  A    between atoms: _148  and  _149
REMARK   66  A    between atoms: _149  and  _150
REMARK   67  A    between atoms: _155  and  _156
REMARK   68  A    between atoms: _161  and  _163
REMARK   69  A    between atoms: _163  and  _164
REMARK   70  A    between atoms: _163  and  _166
REMARK   71  A    between atoms: _166  and  _167
REMARK   72  A    between atoms: _167  and  _168
REMARK   73  A    between atoms: _171  and  _173
REMARK   74  A    between atoms: _173  and  _174
REMARK   75  A    between atoms: _173  and  _176
REMARK   76  A    between atoms: _176  and  _177
REMARK   77  A    between atoms: _181  and  _182
REMARK   78  A    between atoms: _187  and  _189
REMARK   79  A    between atoms: _189  and  _190
REMARK   80  A    between atoms: _189  and  _192
REMARK   81  A    between atoms: _192  and  _193
REMARK   82  A    between atoms: _193  and  _194
REMARK   83  A    between atoms: _199  and  _201
REMARK   84  A    between atoms: _201  and  _202
REMARK   85  A    between atoms: _201  and  _204
REMARK   86  A    between atoms: _204  and  _205
REMARK   87  A    between atoms: _210  and  _212
REMARK   88  A    between atoms: _212  and  _213
REMARK   89  A    between atoms: _212  and  _215
REMARK   90  A    between atoms: _215  and  _216
REMARK   91  A    between atoms: _216  and  _217
REMARK   92  A    between atoms: _217  and  _218
REMARK   93  A    between atoms: _218  and  _219
REMARK   94  A    between atoms: _223  and  _225
REMARK   95  A    between atoms: _225  and  _226
REMARK   96  A    between atoms: _225  and  _228
REMARK   97  A    between atoms: _228  and  _229
REMARK   98  A    between atoms: _239  and  _241
REMARK   99  A    between atoms: _241  and  _242
REMARK  100  A    between atoms: _241  and  _244
REMARK  101  A    between atoms: _244  and  _245
REMARK  102  A    between atoms: _250  and  _251
REMARK                            x       y       z     vdW  Elec       q    Type
REMARK                         _______ _______ _______ _____ _____    ______ ____
ROOT
ATOM      1  O   HOH     1      13.031   9.632 -15.043  0.00  0.00    +0.000 OA
ENDROOT
TORSDOF 0
REMARK  Name = ../refined-set-2016/3hl5/3hl5_pocket.pdb
REMARK  102 active torsions:
REMARK  status: ('A' for Active; 'I' for Inactive)
REMARK    1  A    between atoms: _1  and  _3
REMARK    2  A    between atoms: _3  and  _4
REMARK    3  A    between atoms: _3  and  _6
REMARK    4  A    between atoms: _9  and  _11
REMARK    5  A    between atoms: _11  and  _12
REMARK    6  A    between atoms: _11  and  _14
REMARK    7  A    between atoms: _14  and  _15
REMARK    8  A    between atoms: _18  and  _20
REMARK    9  A    between atoms: _20  and  _21
REMARK   10  A    between atoms: _20  and  _23
REMARK   11  A    between atoms: _23  and  _24
REMARK   12  A    between atoms: _30  and  _32
REMARK   13  A    between atoms: _32  and  _33
REMARK   14  A    between atoms: _32  and  _35
REMARK   15  A    between atoms: _35  and  _36
REMARK   16  A    between atoms: _36  and  _37
REMARK   17  A    between atoms: _40  and  _42
REMARK   18  A    between atoms: _42  and  _43
REMARK   19  A    between atoms: _42  and  _45
REMARK   20  A    between atoms: _45  and  _46
REMARK   21  A    between atoms: _49  and  _51
REMARK   22  A    between atoms: _51  and  _52
REMARK   23  A    between atoms: _51  and  _54
REMARK   24  A    between atoms: _54  and  _55
REMARK   25  A    between atoms: _55  and  _56
REMARK   26  A    between atoms: _56  and  _57
REMARK   27  A    between atoms: _57  and  _58
REMARK   28  A    between atoms: _62  and  _64
REMARK   29  A    between atoms: _64  and  _65
REMARK   30  A    between atoms: _64  and  _67
REMARK   31  A    between atoms: _70  and  _72
REMARK   32  A    between atoms: _72  and  _73
REMARK   33  A    between atoms: _72  and  _75
REMARK   34  A    between atoms: _75  and  _76
REMARK   35  A    between atoms: _76  and  _77
REMARK   36  A    between atoms: _77  and  _78
REMARK   37  A    between atoms: _78  and  _79
REMARK   38  A    between atoms: _83  and  _85
REMARK   39  A    between atoms: _85  and  _86
REMARK   40  A    between atoms: _88  and  _90
REMARK   41  A    between atoms: _90  and  _91
REMARK   42  A    between atoms: _93  and  _95
REMARK   43  A    between atoms: _95  and  _96
REMARK   44  A    between atoms: _98  and  _100
REMARK   45  A    between atoms: _100  and  _101
REMARK   46  A    between atoms: _100  and  _103
REMARK   47  A    between atoms: _103  and  _104
REMARK   48  A    between atoms: _107  and  _109
REMARK   49  A    between atoms: _109  and  _110
REMARK   50  A    between atoms: _109  and  _112
REMARK   51  A    between atoms: _112  and  _113
REMARK   52  A    between atoms: _116  and  _118
REMARK   53  A    between atoms: _118  and  _119
REMARK   54  A    between atoms: _118  and  _121
REMARK   55  A    between atoms: _121  and  _122
REMARK   56  A    between atoms: _125  and  _127
REMARK   57  A    between atoms: _127  and  _128
REMARK   58  A    between atoms: _127  and  _130
REMARK   59  A    between atoms: _130  and  _131
REMARK   60  A    between atoms: _141  and  _143
REMARK   61  A    between atoms: _143  and  _144
REMARK   62  A    between atoms: _143  and  _146
REMARK   63  A    between atoms: _146  and  _147
REMARK   64  A    between atoms: _147  and  _148
REMARK   65  A    between atoms: _148  and  _149
REMARK   66  A    between atoms: _149  and  _150
REMARK   67  A    between atoms: _155  and  _156
REMARK   68  A    between atoms: _161  and  _163
REMARK   69  A    between atoms: _163  and  _164
REMARK   70  A    between atoms: _163  and  _166
REMARK   71  A    between atoms: _166  and  _167
REMARK   72  A    between atoms: _167  and  _168
REMARK   73  A    between atoms: _171  and  _173
REMARK   74  A    between atoms: _173  and  _174
REMARK   75  A    between atoms: _173  and  _176
REMARK   76  A    between atoms: _176  and  _177
REMARK   77  A    between atoms: _181  and  _182
REMARK   78  A    between atoms: _187  and  _189
REMARK   79  A    between atoms: _189  and  _190
REMARK   80  A    between atoms: _189  and  _192
REMARK   81  A    between atoms: _192  and  _193
REMARK   82  A    between atoms: _193  and  _194
REMARK   83  A    between atoms: _199  and  _201
REMARK   84  A    between atoms: _201  and  _202
REMARK   85  A    between atoms: _201  and  _204
REMARK   86  A    between atoms: _204  and  _205
REMARK   87  A    between atoms: _210  and  _212
REMARK   88  A    between atoms: _212  and  _213
REMARK   89  A    between atoms: _212  and  _215
REMARK   90  A    between atoms: _215  and  _216
REMARK   91  A    between atoms: _216  and  _217
REMARK   92  A    between atoms: _217  and  _218
REMARK   93  A    between atoms: _218  and  _219
REMARK   94  A    between atoms: _223  and  _225
REMARK   95  A    between atoms: _225  and  _226
REMARK   96  A    between atoms: _225  and  _228
REMARK   97  A    between atoms: _228  and  _229
REMARK   98  A    between atoms: _239  and  _241
REMARK   99  A    between atoms: _241  and  _242
REMARK  100  A    between atoms: _241  and  _244
REMARK  101  A    between atoms: _244  and  _245
REMARK  102  A    between atoms: _250  and  _251
REMARK                            x       y       z     vdW  Elec       q    Type
REMARK                         _______ _______ _______ _____ _____    ______ ____
ROOT
ATOM      1  O   HOH     1      17.288   7.980 -21.307  0.00  0.00    +0.000 OA
ENDROOT
TORSDOF 0
REMARK  Name = ../refined-set-2016/3hl5/3hl5_pocket.pdb
REMARK  102 active torsions:
REMARK  status: ('A' for Active; 'I' for Inactive)
REMARK    1  A    between atoms: _1  and  _3
REMARK    2  A    between atoms: _3  and  _4
REMARK    3  A    between atoms: _3  and  _6
REMARK    4  A    between atoms: _9  and  _11
REMARK    5  A    between atoms: _11  and  _12
REMARK    6  A    between atoms: _11  and  _14
REMARK    7  A    between atoms: _14  and  _15
REMARK    8  A    between atoms: _18  and  _20
REMARK    9  A    between atoms: _20  and  _21
REMARK   10  A    between atoms: _20  and  _23
REMARK   11  A    between atoms: _23  and  _24
REMARK   12  A    between atoms: _30  and  _32
REMARK   13  A    between atoms: _32  and  _33
REMARK   14  A    between atoms: _32  and  _35
REMARK   15  A    between atoms: _35  and  _36
REMARK   16  A    between atoms: _36  and  _37
REMARK   17  A    between atoms: _40  and  _42
REMARK   18  A    between atoms: _42  and  _43
REMARK   19  A    between atoms: _42  and  _45
REMARK   20  A    between atoms: _45  and  _46
REMARK   21  A    between atoms: _49  and  _51
REMARK   22  A    between atoms: _51  and  _52
REMARK   23  A    between atoms: _51  and  _54
REMARK   24  A    between atoms: _54  and  _55
REMARK   25  A    between atoms: _55  and  _56
REMARK   26  A    between atoms: _56  and  _57
REMARK   27  A    between atoms: _57  and  _58
REMARK   28  A    between atoms: _62  and  _64
REMARK   29  A    between atoms: _64  and  _65
REMARK   30  A    between atoms: _64  and  _67
REMARK   31  A    between atoms: _70  and  _72
REMARK   32  A    between atoms: _72  and  _73
REMARK   33  A    between atoms: _72  and  _75
REMARK   34  A    between atoms: _75  and  _76
REMARK   35  A    between atoms: _76  and  _77
REMARK   36  A    between atoms: _77  and  _78
REMARK   37  A    between atoms: _78  and  _79
REMARK   38  A    between atoms: _83  and  _85
REMARK   39  A    between atoms: _85  and  _86
REMARK   40  A    between atoms: _88  and  _90
REMARK   41  A    between atoms: _90  and  _91
REMARK   42  A    between atoms: _93  and  _95
REMARK   43  A    between atoms: _95  and  _96
REMARK   44  A    between atoms: _98  and  _100
REMARK   45  A    between atoms: _100  and  _101
REMARK   46  A    between atoms: _100  and  _103
REMARK   47  A    between atoms: _103  and  _104
REMARK   48  A    between atoms: _107  and  _109
REMARK   49  A    between atoms: _109  and  _110
REMARK   50  A    between atoms: _109  and  _112
REMARK   51  A    between atoms: _112  and  _113
REMARK   52  A    between atoms: _116  and  _118
REMARK   53  A    between atoms: _118  and  _119
REMARK   54  A    between atoms: _118  and  _121
REMARK   55  A    between atoms: _121  and  _122
REMARK   56  A    between atoms: _125  and  _127
REMARK   57  A    between atoms: _127  and  _128
REMARK   58  A    between atoms: _127  and  _130
REMARK   59  A    between atoms: _130  and  _131
REMARK   60  A    between atoms: _141  and  _143
REMARK   61  A    between atoms: _143  and  _144
REMARK   62  A    between atoms: _143  and  _146
REMARK   63  A    between atoms: _146  and  _147
REMARK   64  A    between atoms: _147  and  _148
REMARK   65  A    between atoms: _148  and  _149
REMARK   66  A    between atoms: _149  and  _150
REMARK   67  A    between atoms: _155  and  _156
REMARK   68  A    between atoms: _161  and  _163
REMARK   69  A    between atoms: _163  and  _164
REMARK   70  A    between atoms: _163  and  _166
REMARK   71  A    between atoms: _166  and  _167
REMARK   72  A    between atoms: _167  and  _168
REMARK   73  A    between atoms: _171  and  _173
REMARK   74  A    between atoms: _173  and  _174
REMARK   75  A    between atoms: _173  and  _176
REMARK   76  A    between atoms: _176  and  _177
REMARK   77  A    between atoms: _181  and  _182
REMARK   78  A    between atoms: _187  and  _189
REMARK   79  A    between atoms: _189  and  _190
REMARK   80  A    between atoms: _189  and  _192
REMARK   81  A    between atoms: _192  and  _193
REMARK   82  A    between atoms: _193  and  _194
REMARK   83  A    between atoms: _199  and  _201
REMARK   84  A    between atoms: _201  and  _202
REMARK   85  A    between atoms: _201  and  _204
REMARK   86  A    between atoms: _204  and  _205
REMARK   87  A    between atoms: _210  and  _212
REMARK   88  A    between atoms: _212  and  _213
REMARK   89  A    between atoms: _212  and  _215
REMARK   90  A    between atoms: _215  and  _216
REMARK   91  A    between atoms: _216  and  _217
REMARK   92  A    between atoms: _217  and  _218
REMARK   93  A    between atoms: _218  and  _219
REMARK   94  A    between atoms: _223  and  _225
REMARK   95  A    between atoms: _225  and  _226
REMARK   96  A    between atoms: _225  and  _228
REMARK   97  A    between atoms: _228  and  _229
REMARK   98  A    between atoms: _239  and  _241
REMARK   99  A    between atoms: _241  and  _242
REMARK  100  A    between atoms: _241  and  _244
REMARK  101  A    between atoms: _244  and  _245
REMARK  102  A    between atoms: _250  and  _251
REMARK                            x       y       z     vdW  Elec       q    Type
REMARK                         _______ _______ _______ _____ _____    ______ ____
ROOT
ATOM      1  O   HOH     1       3.165  22.318 -16.771  0.00  0.00    +0.000 OA
ENDROOT
TORSDOF 0
REMARK  Name = ../refined-set-2016/3hl5/3hl5_pocket.pdb
REMARK  102 active torsions:
REMARK  status: ('A' for Active; 'I' for Inactive)
REMARK    1  A    between atoms: _1  and  _3
REMARK    2  A    between atoms: _3  and  _4
REMARK    3  A    between atoms: _3  and  _6
REMARK    4  A    between atoms: _9  and  _11
REMARK    5  A    between atoms: _11  and  _12
REMARK    6  A    between atoms: _11  and  _14
REMARK    7  A    between atoms: _14  and  _15
REMARK    8  A    between atoms: _18  and  _20
REMARK    9  A    between atoms: _20  and  _21
REMARK   10  A    between atoms: _20  and  _23
REMARK   11  A    between atoms: _23  and  _24
REMARK   12  A    between atoms: _30  and  _32
REMARK   13  A    between atoms: _32  and  _33
REMARK   14  A    between atoms: _32  and  _35
REMARK   15  A    between atoms: _35  and  _36
REMARK   16  A    between atoms: _36  and  _37
REMARK   17  A    between atoms: _40  and  _42
REMARK   18  A    between atoms: _42  and  _43
REMARK   19  A    between atoms: _42  and  _45
REMARK   20  A    between atoms: _45  and  _46
REMARK   21  A    between atoms: _49  and  _51
REMARK   22  A    between atoms: _51  and  _52
REMARK   23  A    between atoms: _51  and  _54
REMARK   24  A    between atoms: _54  and  _55
REMARK   25  A    between atoms: _55  and  _56
REMARK   26  A    between atoms: _56  and  _57
REMARK   27  A    between atoms: _57  and  _58
REMARK   28  A    between atoms: _62  and  _64
REMARK   29  A    between atoms: _64  and  _65
REMARK   30  A    between atoms: _64  and  _67
REMARK   31  A    between atoms: _70  and  _72
REMARK   32  A    between atoms: _72  and  _73
REMARK   33  A    between atoms: _72  and  _75
REMARK   34  A    between atoms: _75  and  _76
REMARK   35  A    between atoms: _76  and  _77
REMARK   36  A    between atoms: _77  and  _78
REMARK   37  A    between atoms: _78  and  _79
REMARK   38  A    between atoms: _83  and  _85
REMARK   39  A    between atoms: _85  and  _86
REMARK   40  A    between atoms: _88  and  _90
REMARK   41  A    between atoms: _90  and  _91
REMARK   42  A    between atoms: _93  and  _95
REMARK   43  A    between atoms: _95  and  _96
REMARK   44  A    between atoms: _98  and  _100
REMARK   45  A    between atoms: _100  and  _101
REMARK   46  A    between atoms: _100  and  _103
REMARK   47  A    between atoms: _103  and  _104
REMARK   48  A    between atoms: _107  and  _109
REMARK   49  A    between atoms: _109  and  _110
REMARK   50  A    between atoms: _109  and  _112
REMARK   51  A    between atoms: _112  and  _113
REMARK   52  A    between atoms: _116  and  _118
REMARK   53  A    between atoms: _118  and  _119
REMARK   54  A    between atoms: _118  and  _121
REMARK   55  A    between atoms: _121  and  _122
REMARK   56  A    between atoms: _125  and  _127
REMARK   57  A    between atoms: _127  and  _128
REMARK   58  A    between atoms: _127  and  _130
REMARK   59  A    between atoms: _130  and  _131
REMARK   60  A    between atoms: _141  and  _143
REMARK   61  A    between atoms: _143  and  _144
REMARK   62  A    between atoms: _143  and  _146
REMARK   63  A    between atoms: _146  and  _147
REMARK   64  A    between atoms: _147  and  _148
REMARK   65  A    between atoms: _148  and  _149
REMARK   66  A    between atoms: _149  and  _150
REMARK   67  A    between atoms: _155  and  _156
REMARK   68  A    between atoms: _161  and  _163
REMARK   69  A    between atoms: _163  and  _164
REMARK   70  A    between atoms: _163  and  _166
REMARK   71  A    between atoms: _166  and  _167
REMARK   72  A    between atoms: _167  and  _168
REMARK   73  A    between atoms: _171  and  _173
REMARK   74  A    between atoms: _173  and  _174
REMARK   75  A    between atoms: _173  and  _176
REMARK   76  A    between atoms: _176  and  _177
REMARK   77  A    between atoms: _181  and  _182
REMARK   78  A    between atoms: _187  and  _189
REMARK   79  A    between atoms: _189  and  _190
REMARK   80  A    between atoms: _189  and  _192
REMARK   81  A    between atoms: _192  and  _193
REMARK   82  A    between atoms: _193  and  _194
REMARK   83  A    between atoms: _199  and  _201
REMARK   84  A    between atoms: _201  and  _202
REMARK   85  A    between atoms: _201  and  _204
REMARK   86  A    between atoms: _204  and  _205
REMARK   87  A    between atoms: _210  and  _212
REMARK   88  A    between atoms: _212  and  _213
REMARK   89  A    between atoms: _212  and  _215
REMARK   90  A    between atoms: _215  and  _216
REMARK   91  A    between atoms: _216  and  _217
REMARK   92  A    between atoms: _217  and  _218
REMARK   93  A    between atoms: _218  and  _219
REMARK   94  A    between atoms: _223  and  _225
REMARK   95  A    between atoms: _225  and  _226
REMARK   96  A    between atoms: _225  and  _228
REMARK   97  A    between atoms: _228  and  _229
REMARK   98  A    between atoms: _239  and  _241
REMARK   99  A    between atoms: _241  and  _242
REMARK  100  A    between atoms: _241  and  _244
REMARK  101  A    between atoms: _244  and  _245
REMARK  102  A    between atoms: _250  and  _251
REMARK                            x       y       z     vdW  Elec       q    Type
REMARK                         _______ _______ _______ _____ _____    ______ ____
ROOT
ATOM      1  O   HOH     1       0.313  18.716 -24.587  0.00  0.00    +0.000 OA
ENDROOT
TORSDOF 0
REMARK  Name = ../refined-set-2016/3hl5/3hl5_pocket.pdb
REMARK  102 active torsions:
REMARK  status: ('A' for Active; 'I' for Inactive)
REMARK    1  A    between atoms: _1  and  _3
REMARK    2  A    between atoms: _3  and  _4
REMARK    3  A    between atoms: _3  and  _6
REMARK    4  A    between atoms: _9  and  _11
REMARK    5  A    between atoms: _11  and  _12
REMARK    6  A    between atoms: _11  and  _14
REMARK    7  A    between atoms: _14  and  _15
REMARK    8  A    between atoms: _18  and  _20
REMARK    9  A    between atoms: _20  and  _21
REMARK   10  A    between atoms: _20  and  _23
REMARK   11  A    between atoms: _23  and  _24
REMARK   12  A    between atoms: _30  and  _32
REMARK   13  A    between atoms: _32  and  _33
REMARK   14  A    between atoms: _32  and  _35
REMARK   15  A    between atoms: _35  and  _36
REMARK   16  A    between atoms: _36  and  _37
REMARK   17  A    between atoms: _40  and  _42
REMARK   18  A    between atoms: _42  and  _43
REMARK   19  A    between atoms: _42  and  _45
REMARK   20  A    between atoms: _45  and  _46
REMARK   21  A    between atoms: _49  and  _51
REMARK   22  A    between atoms: _51  and  _52
REMARK   23  A    between atoms: _51  and  _54
REMARK   24  A    between atoms: _54  and  _55
REMARK   25  A    between atoms: _55  and  _56
REMARK   26  A    between atoms: _56  and  _57
REMARK   27  A    between atoms: _57  and  _58
REMARK   28  A    between atoms: _62  and  _64
REMARK   29  A    between atoms: _64  and  _65
REMARK   30  A    between atoms: _64  and  _67
REMARK   31  A    between atoms: _70  and  _72
REMARK   32  A    between atoms: _72  and  _73
REMARK   33  A    between atoms: _72  and  _75
REMARK   34  A    between atoms: _75  and  _76
REMARK   35  A    between atoms: _76  and  _77
REMARK   36  A    between atoms: _77  and  _78
REMARK   37  A    between atoms: _78  and  _79
REMARK   38  A    between atoms: _83  and  _85
REMARK   39  A    between atoms: _85  and  _86
REMARK   40  A    between atoms: _88  and  _90
REMARK   41  A    between atoms: _90  and  _91
REMARK   42  A    between atoms: _93  and  _95
REMARK   43  A    between atoms: _95  and  _96
REMARK   44  A    between atoms: _98  and  _100
REMARK   45  A    between atoms: _100  and  _101
REMARK   46  A    between atoms: _100  and  _103
REMARK   47  A    between atoms: _103  and  _104
REMARK   48  A    between atoms: _107  and  _109
REMARK   49  A    between atoms: _109  and  _110
REMARK   50  A    between atoms: _109  and  _112
REMARK   51  A    between atoms: _112  and  _113
REMARK   52  A    between atoms: _116  and  _118
REMARK   53  A    between atoms: _118  and  _119
REMARK   54  A    between atoms: _118  and  _121
REMARK   55  A    between atoms: _121  and  _122
REMARK   56  A    between atoms: _125  and  _127
REMARK   57  A    between atoms: _127  and  _128
REMARK   58  A    between atoms: _127  and  _130
REMARK   59  A    between atoms: _130  and  _131
REMARK   60  A    between atoms: _141  and  _143
REMARK   61  A    between atoms: _143  and  _144
REMARK   62  A    between atoms: _143  and  _146
REMARK   63  A    between atoms: _146  and  _147
REMARK   64  A    between atoms: _147  and  _148
REMARK   65  A    between atoms: _148  and  _149
REMARK   66  A    between atoms: _149  and  _150
REMARK   67  A    between atoms: _155  and  _156
REMARK   68  A    between atoms: _161  and  _163
REMARK   69  A    between atoms: _163  and  _164
REMARK   70  A    between atoms: _163  and  _166
REMARK   71  A    between atoms: _166  and  _167
REMARK   72  A    between atoms: _167  and  _168
REMARK   73  A    between atoms: _171  and  _173
REMARK   74  A    between atoms: _173  and  _174
REMARK   75  A    between atoms: _173  and  _176
REMARK   76  A    between atoms: _176  and  _177
REMARK   77  A    between atoms: _181  and  _182
REMARK   78  A    between atoms: _187  and  _189
REMARK   79  A    between atoms: _189  and  _190
REMARK   80  A    between atoms: _189  and  _192
REMARK   81  A    between atoms: _192  and  _193
REMARK   82  A    between atoms: _193  and  _194
REMARK   83  A    between atoms: _199  and  _201
REMARK   84  A    between atoms: _201  and  _202
REMARK   85  A    between atoms: _201  and  _204
REMARK   86  A    between atoms: _204  and  _205
REMARK   87  A    between atoms: _210  and  _212
REMARK   88  A    between atoms: _212  and  _213
REMARK   89  A    between atoms: _212  and  _215
REMARK   90  A    between atoms: _215  and  _216
REMARK   91  A    between atoms: _216  and  _217
REMARK   92  A    between atoms: _217  and  _218
REMARK   93  A    between atoms: _218  and  _219
REMARK   94  A    between atoms: _223  and  _225
REMARK   95  A    between atoms: _225  and  _226
REMARK   96  A    between atoms: _225  and  _228
REMARK   97  A    between atoms: _228  and  _229
REMARK   98  A    between atoms: _239  and  _241
REMARK   99  A    between atoms: _241  and  _242
REMARK  100  A    between atoms: _241  and  _244
REMARK  101  A    between atoms: _244  and  _245
REMARK  102  A    between atoms: _250  and  _251
REMARK                            x       y       z     vdW  Elec       q    Type
REMARK                         _______ _______ _______ _____ _____    ______ ____
ROOT
ATOM      1  O   HOH     1      10.415  17.884 -23.178  0.00  0.00    +0.000 OA
ENDROOT
TORSDOF 0
REMARK  Name = ../refined-set-2016/3hl5/3hl5_pocket.pdb
REMARK  102 active torsions:
REMARK  status: ('A' for Active; 'I' for Inactive)
REMARK    1  A    between atoms: _1  and  _3
REMARK    2  A    between atoms: _3  and  _4
REMARK    3  A    between atoms: _3  and  _6
REMARK    4  A    between atoms: _9  and  _11
REMARK    5  A    between atoms: _11  and  _12
REMARK    6  A    between atoms: _11  and  _14
REMARK    7  A    between atoms: _14  and  _15
REMARK    8  A    between atoms: _18  and  _20
REMARK    9  A    between atoms: _20  and  _21
REMARK   10  A    between atoms: _20  and  _23
REMARK   11  A    between atoms: _23  and  _24
REMARK   12  A    between atoms: _30  and  _32
REMARK   13  A    between atoms: _32  and  _33
REMARK   14  A    between atoms: _32  and  _35
REMARK   15  A    between atoms: _35  and  _36
REMARK   16  A    between atoms: _36  and  _37
REMARK   17  A    between atoms: _40  and  _42
REMARK   18  A    between atoms: _42  and  _43
REMARK   19  A    between atoms: _42  and  _45
REMARK   20  A    between atoms: _45  and  _46
REMARK   21  A    between atoms: _49  and  _51
REMARK   22  A    between atoms: _51  and  _52
REMARK   23  A    between atoms: _51  and  _54
REMARK   24  A    between atoms: _54  and  _55
REMARK   25  A    between atoms: _55  and  _56
REMARK   26  A    between atoms: _56  and  _57
REMARK   27  A    between atoms: _57  and  _58
REMARK   28  A    between atoms: _62  and  _64
REMARK   29  A    between atoms: _64  and  _65
REMARK   30  A    between atoms: _64  and  _67
REMARK   31  A    between atoms: _70  and  _72
REMARK   32  A    between atoms: _72  and  _73
REMARK   33  A    between atoms: _72  and  _75
REMARK   34  A    between atoms: _75  and  _76
REMARK   35  A    between atoms: _76  and  _77
REMARK   36  A    between atoms: _77  and  _78
REMARK   37  A    between atoms: _78  and  _79
REMARK   38  A    between atoms: _83  and  _85
REMARK   39  A    between atoms: _85  and  _86
REMARK   40  A    between atoms: _88  and  _90
REMARK   41  A    between atoms: _90  and  _91
REMARK   42  A    between atoms: _93  and  _95
REMARK   43  A    between atoms: _95  and  _96
REMARK   44  A    between atoms: _98  and  _100
REMARK   45  A    between atoms: _100  and  _101
REMARK   46  A    between atoms: _100  and  _103
REMARK   47  A    between atoms: _103  and  _104
REMARK   48  A    between atoms: _107  and  _109
REMARK   49  A    between atoms: _109  and  _110
REMARK   50  A    between atoms: _109  and  _112
REMARK   51  A    between atoms: _112  and  _113
REMARK   52  A    between atoms: _116  and  _118
REMARK   53  A    between atoms: _118  and  _119
REMARK   54  A    between atoms: _118  and  _121
REMARK   55  A    between atoms: _121  and  _122
REMARK   56  A    between atoms: _125  and  _127
REMARK   57  A    between atoms: _127  and  _128
REMARK   58  A    between atoms: _127  and  _130
REMARK   59  A    between atoms: _130  and  _131
REMARK   60  A    between atoms: _141  and  _143
REMARK   61  A    between atoms: _143  and  _144
REMARK   62  A    between atoms: _143  and  _146
REMARK   63  A    between atoms: _146  and  _147
REMARK   64  A    between atoms: _147  and  _148
REMARK   65  A    between atoms: _148  and  _149
REMARK   66  A    between atoms: _149  and  _150
REMARK   67  A    between atoms: _155  and  _156
REMARK   68  A    between atoms: _161  and  _163
REMARK   69  A    between atoms: _163  and  _164
REMARK   70  A    between atoms: _163  and  _166
REMARK   71  A    between atoms: _166  and  _167
REMARK   72  A    between atoms: _167  and  _168
REMARK   73  A    between atoms: _171  and  _173
REMARK   74  A    between atoms: _173  and  _174
REMARK   75  A    between atoms: _173  and  _176
REMARK   76  A    between atoms: _176  and  _177
REMARK   77  A    between atoms: _181  and  _182
REMARK   78  A    between atoms: _187  and  _189
REMARK   79  A    between atoms: _189  and  _190
REMARK   80  A    between atoms: _189  and  _192
REMARK   81  A    between atoms: _192  and  _193
REMARK   82  A    between atoms: _193  and  _194
REMARK   83  A    between atoms: _199  and  _201
REMARK   84  A    between atoms: _201  and  _202
REMARK   85  A    between atoms: _201  and  _204
REMARK   86  A    between atoms: _204  and  _205
REMARK   87  A    between atoms: _210  and  _212
REMARK   88  A    between atoms: _212  and  _213
REMARK   89  A    between atoms: _212  and  _215
REMARK   90  A    between atoms: _215  and  _216
REMARK   91  A    between atoms: _216  and  _217
REMARK   92  A    between atoms: _217  and  _218
REMARK   93  A    between atoms: _218  and  _219
REMARK   94  A    between atoms: _223  and  _225
REMARK   95  A    between atoms: _225  and  _226
REMARK   96  A    between atoms: _225  and  _228
REMARK   97  A    between atoms: _228  and  _229
REMARK   98  A    between atoms: _239  and  _241
REMARK   99  A    between atoms: _241  and  _242
REMARK  100  A    between atoms: _241  and  _244
REMARK  101  A    between atoms: _244  and  _245
REMARK  102  A    between atoms: _250  and  _251
REMARK                            x       y       z     vdW  Elec       q    Type
REMARK                         _______ _______ _______ _____ _____    ______ ____
ROOT
ATOM      1  O   HOH     1      20.908   8.541 -20.633  0.00  0.00    +0.000 OA
ENDROOT
TORSDOF 0
REMARK  Name = ../refined-set-2016/3hl5/3hl5_pocket.pdb
REMARK  102 active torsions:
REMARK  status: ('A' for Active; 'I' for Inactive)
REMARK    1  A    between atoms: _1  and  _3
REMARK    2  A    between atoms: _3  and  _4
REMARK    3  A    between atoms: _3  and  _6
REMARK    4  A    between atoms: _9  and  _11
REMARK    5  A    between atoms: _11  and  _12
REMARK    6  A    between atoms: _11  and  _14
REMARK    7  A    between atoms: _14  and  _15
REMARK    8  A    between atoms: _18  and  _20
REMARK    9  A    between atoms: _20  and  _21
REMARK   10  A    between atoms: _20  and  _23
REMARK   11  A    between atoms: _23  and  _24
REMARK   12  A    between atoms: _30  and  _32
REMARK   13  A    between atoms: _32  and  _33
REMARK   14  A    between atoms: _32  and  _35
REMARK   15  A    between atoms: _35  and  _36
REMARK   16  A    between atoms: _36  and  _37
REMARK   17  A    between atoms: _40  and  _42
REMARK   18  A    between atoms: _42  and  _43
REMARK   19  A    between atoms: _42  and  _45
REMARK   20  A    between atoms: _45  and  _46
REMARK   21  A    between atoms: _49  and  _51
REMARK   22  A    between atoms: _51  and  _52
REMARK   23  A    between atoms: _51  and  _54
REMARK   24  A    between atoms: _54  and  _55
REMARK   25  A    between atoms: _55  and  _56
REMARK   26  A    between atoms: _56  and  _57
REMARK   27  A    between atoms: _57  and  _58
REMARK   28  A    between atoms: _62  and  _64
REMARK   29  A    between atoms: _64  and  _65
REMARK   30  A    between atoms: _64  and  _67
REMARK   31  A    between atoms: _70  and  _72
REMARK   32  A    between atoms: _72  and  _73
REMARK   33  A    between atoms: _72  and  _75
REMARK   34  A    between atoms: _75  and  _76
REMARK   35  A    between atoms: _76  and  _77
REMARK   36  A    between atoms: _77  and  _78
REMARK   37  A    between atoms: _78  and  _79
REMARK   38  A    between atoms: _83  and  _85
REMARK   39  A    between atoms: _85  and  _86
REMARK   40  A    between atoms: _88  and  _90
REMARK   41  A    between atoms: _90  and  _91
REMARK   42  A    between atoms: _93  and  _95
REMARK   43  A    between atoms: _95  and  _96
REMARK   44  A    between atoms: _98  and  _100
REMARK   45  A    between atoms: _100  and  _101
REMARK   46  A    between atoms: _100  and  _103
REMARK   47  A    between atoms: _103  and  _104
REMARK   48  A    between atoms: _107  and  _109
REMARK   49  A    between atoms: _109  and  _110
REMARK   50  A    between atoms: _109  and  _112
REMARK   51  A    between atoms: _112  and  _113
REMARK   52  A    between atoms: _116  and  _118
REMARK   53  A    between atoms: _118  and  _119
REMARK   54  A    between atoms: _118  and  _121
REMARK   55  A    between atoms: _121  and  _122
REMARK   56  A    between atoms: _125  and  _127
REMARK   57  A    between atoms: _127  and  _128
REMARK   58  A    between atoms: _127  and  _130
REMARK   59  A    between atoms: _130  and  _131
REMARK   60  A    between atoms: _141  and  _143
REMARK   61  A    between atoms: _143  and  _144
REMARK   62  A    between atoms: _143  and  _146
REMARK   63  A    between atoms: _146  and  _147
REMARK   64  A    between atoms: _147  and  _148
REMARK   65  A    between atoms: _148  and  _149
REMARK   66  A    between atoms: _149  and  _150
REMARK   67  A    between atoms: _155  and  _156
REMARK   68  A    between atoms: _161  and  _163
REMARK   69  A    between atoms: _163  and  _164
REMARK   70  A    between atoms: _163  and  _166
REMARK   71  A    between atoms: _166  and  _167
REMARK   72  A    between atoms: _167  and  _168
REMARK   73  A    between atoms: _171  and  _173
REMARK   74  A    between atoms: _173  and  _174
REMARK   75  A    between atoms: _173  and  _176
REMARK   76  A    between atoms: _176  and  _177
REMARK   77  A    between atoms: _181  and  _182
REMARK   78  A    between atoms: _187  and  _189
REMARK   79  A    between atoms: _189  and  _190
REMARK   80  A    between atoms: _189  and  _192
REMARK   81  A    between atoms: _192  and  _193
REMARK   82  A    between atoms: _193  and  _194
REMARK   83  A    between atoms: _199  and  _201
REMARK   84  A    between atoms: _201  and  _202
REMARK   85  A    between atoms: _201  and  _204
REMARK   86  A    between atoms: _204  and  _205
REMARK   87  A    between atoms: _210  and  _212
REMARK   88  A    between atoms: _212  and  _213
REMARK   89  A    between atoms: _212  and  _215
REMARK   90  A    between atoms: _215  and  _216
REMARK   91  A    between atoms: _216  and  _217
REMARK   92  A    between atoms: _217  and  _218
REMARK   93  A    between atoms: _218  and  _219
REMARK   94  A    between atoms: _223  and  _225
REMARK   95  A    between atoms: _225  and  _226
REMARK   96  A    between atoms: _225  and  _228
REMARK   97  A    between atoms: _228  and  _229
REMARK   98  A    between atoms: _239  and  _241
REMARK   99  A    between atoms: _241  and  _242
REMARK  100  A    between atoms: _241  and  _244
REMARK  101  A    between atoms: _244  and  _245
REMARK  102  A    between atoms: _250  and  _251
REMARK                            x       y       z     vdW  Elec       q    Type
REMARK                         _______ _______ _______ _____ _____    ______ ____
ROOT
ATOM      1  O   HOH     1       1.557   8.475 -19.973  0.00  0.00    +0.000 OA
ENDROOT
TORSDOF 0
REMARK  Name = ../refined-set-2016/3hl5/3hl5_pocket.pdb
REMARK  102 active torsions:
REMARK  status: ('A' for Active; 'I' for Inactive)
REMARK    1  A    between atoms: _1  and  _3
REMARK    2  A    between atoms: _3  and  _4
REMARK    3  A    between atoms: _3  and  _6
REMARK    4  A    between atoms: _9  and  _11
REMARK    5  A    between atoms: _11  and  _12
REMARK    6  A    between atoms: _11  and  _14
REMARK    7  A    between atoms: _14  and  _15
REMARK    8  A    between atoms: _18  and  _20
REMARK    9  A    between atoms: _20  and  _21
REMARK   10  A    between atoms: _20  and  _23
REMARK   11  A    between atoms: _23  and  _24
REMARK   12  A    between atoms: _30  and  _32
REMARK   13  A    between atoms: _32  and  _33
REMARK   14  A    between atoms: _32  and  _35
REMARK   15  A    between atoms: _35  and  _36
REMARK   16  A    between atoms: _36  and  _37
REMARK   17  A    between atoms: _40  and  _42
REMARK   18  A    between atoms: _42  and  _43
REMARK   19  A    between atoms: _42  and  _45
REMARK   20  A    between atoms: _45  and  _46
REMARK   21  A    between atoms: _49  and  _51
REMARK   22  A    between atoms: _51  and  _52
REMARK   23  A    between atoms: _51  and  _54
REMARK   24  A    between atoms: _54  and  _55
REMARK   25  A    between atoms: _55  and  _56
REMARK   26  A    between atoms: _56  and  _57
REMARK   27  A    between atoms: _57  and  _58
REMARK   28  A    between atoms: _62  and  _64
REMARK   29  A    between atoms: _64  and  _65
REMARK   30  A    between atoms: _64  and  _67
REMARK   31  A    between atoms: _70  and  _72
REMARK   32  A    between atoms: _72  and  _73
REMARK   33  A    between atoms: _72  and  _75
REMARK   34  A    between atoms: _75  and  _76
REMARK   35  A    between atoms: _76  and  _77
REMARK   36  A    between atoms: _77  and  _78
REMARK   37  A    between atoms: _78  and  _79
REMARK   38  A    between atoms: _83  and  _85
REMARK   39  A    between atoms: _85  and  _86
REMARK   40  A    between atoms: _88  and  _90
REMARK   41  A    between atoms: _90  and  _91
REMARK   42  A    between atoms: _93  and  _95
REMARK   43  A    between atoms: _95  and  _96
REMARK   44  A    between atoms: _98  and  _100
REMARK   45  A    between atoms: _100  and  _101
REMARK   46  A    between atoms: _100  and  _103
REMARK   47  A    between atoms: _103  and  _104
REMARK   48  A    between atoms: _107  and  _109
REMARK   49  A    between atoms: _109  and  _110
REMARK   50  A    between atoms: _109  and  _112
REMARK   51  A    between atoms: _112  and  _113
REMARK   52  A    between atoms: _116  and  _118
REMARK   53  A    between atoms: _118  and  _119
REMARK   54  A    between atoms: _118  and  _121
REMARK   55  A    between atoms: _121  and  _122
REMARK   56  A    between atoms: _125  and  _127
REMARK   57  A    between atoms: _127  and  _128
REMARK   58  A    between atoms: _127  and  _130
REMARK   59  A    between atoms: _130  and  _131
REMARK   60  A    between atoms: _141  and  _143
REMARK   61  A    between atoms: _143  and  _144
REMARK   62  A    between atoms: _143  and  _146
REMARK   63  A    between atoms: _146  and  _147
REMARK   64  A    between atoms: _147  and  _148
REMARK   65  A    between atoms: _148  and  _149
REMARK   66  A    between atoms: _149  and  _150
REMARK   67  A    between atoms: _155  and  _156
REMARK   68  A    between atoms: _161  and  _163
REMARK   69  A    between atoms: _163  and  _164
REMARK   70  A    between atoms: _163  and  _166
REMARK   71  A    between atoms: _166  and  _167
REMARK   72  A    between atoms: _167  and  _168
REMARK   73  A    between atoms: _171  and  _173
REMARK   74  A    between atoms: _173  and  _174
REMARK   75  A    between atoms: _173  and  _176
REMARK   76  A    between atoms: _176  and  _177
REMARK   77  A    between atoms: _181  and  _182
REMARK   78  A    between atoms: _187  and  _189
REMARK   79  A    between atoms: _189  and  _190
REMARK   80  A    between atoms: _189  and  _192
REMARK   81  A    between atoms: _192  and  _193
REMARK   82  A    between atoms: _193  and  _194
REMARK   83  A    between atoms: _199  and  _201
REMARK   84  A    between atoms: _201  and  _202
REMARK   85  A    between atoms: _201  and  _204
REMARK   86  A    between atoms: _204  and  _205
REMARK   87  A    between atoms: _210  and  _212
REMARK   88  A    between atoms: _212  and  _213
REMARK   89  A    between atoms: _212  and  _215
REMARK   90  A    between atoms: _215  and  _216
REMARK   91  A    between atoms: _216  and  _217
REMARK   92  A    between atoms: _217  and  _218
REMARK   93  A    between atoms: _218  and  _219
REMARK   94  A    between atoms: _223  and  _225
REMARK   95  A    between atoms: _225  and  _226
REMARK   96  A    between atoms: _225  and  _228
REMARK   97  A    between atoms: _228  and  _229
REMARK   98  A    between atoms: _239  and  _241
REMARK   99  A    between atoms: _241  and  _242
REMARK  100  A    between atoms: _241  and  _244
REMARK  101  A    between atoms: _244  and  _245
REMARK  102  A    between atoms: _250  and  _251
REMARK                            x       y       z     vdW  Elec       q    Type
REMARK                         _______ _______ _______ _____ _____    ______ ____
ROOT
ATOM      1  O   HOH     1      -0.352   6.241 -20.257  0.00  0.00    +0.000 OA
ENDROOT
TORSDOF 0
REMARK  Name = ../refined-set-2016/3hl5/3hl5_pocket.pdb
REMARK  102 active torsions:
REMARK  status: ('A' for Active; 'I' for Inactive)
REMARK    1  A    between atoms: _1  and  _3
REMARK    2  A    between atoms: _3  and  _4
REMARK    3  A    between atoms: _3  and  _6
REMARK    4  A    between atoms: _9  and  _11
REMARK    5  A    between atoms: _11  and  _12
REMARK    6  A    between atoms: _11  and  _14
REMARK    7  A    between atoms: _14  and  _15
REMARK    8  A    between atoms: _18  and  _20
REMARK    9  A    between atoms: _20  and  _21
REMARK   10  A    between atoms: _20  and  _23
REMARK   11  A    between atoms: _23  and  _24
REMARK   12  A    between atoms: _30  and  _32
REMARK   13  A    between atoms: _32  and  _33
REMARK   14  A    between atoms: _32  and  _35
REMARK   15  A    between atoms: _35  and  _36
REMARK   16  A    between atoms: _36  and  _37
REMARK   17  A    between atoms: _40  and  _42
REMARK   18  A    between atoms: _42  and  _43
REMARK   19  A    between atoms: _42  and  _45
REMARK   20  A    between atoms: _45  and  _46
REMARK   21  A    between atoms: _49  and  _51
REMARK   22  A    between atoms: _51  and  _52
REMARK   23  A    between atoms: _51  and  _54
REMARK   24  A    between atoms: _54  and  _55
REMARK   25  A    between atoms: _55  and  _56
REMARK   26  A    between atoms: _56  and  _57
REMARK   27  A    between atoms: _57  and  _58
REMARK   28  A    between atoms: _62  and  _64
REMARK   29  A    between atoms: _64  and  _65
REMARK   30  A    between atoms: _64  and  _67
REMARK   31  A    between atoms: _70  and  _72
REMARK   32  A    between atoms: _72  and  _73
REMARK   33  A    between atoms: _72  and  _75
REMARK   34  A    between atoms: _75  and  _76
REMARK   35  A    between atoms: _76  and  _77
REMARK   36  A    between atoms: _77  and  _78
REMARK   37  A    between atoms: _78  and  _79
REMARK   38  A    between atoms: _83  and  _85
REMARK   39  A    between atoms: _85  and  _86
REMARK   40  A    between atoms: _88  and  _90
REMARK   41  A    between atoms: _90  and  _91
REMARK   42  A    between atoms: _93  and  _95
REMARK   43  A    between atoms: _95  and  _96
REMARK   44  A    between atoms: _98  and  _100
REMARK   45  A    between atoms: _100  and  _101
REMARK   46  A    between atoms: _100  and  _103
REMARK   47  A    between atoms: _103  and  _104
REMARK   48  A    between atoms: _107  and  _109
REMARK   49  A    between atoms: _109  and  _110
REMARK   50  A    between atoms: _109  and  _112
REMARK   51  A    between atoms: _112  and  _113
REMARK   52  A    between atoms: _116  and  _118
REMARK   53  A    between atoms: _118  and  _119
REMARK   54  A    between atoms: _118  and  _121
REMARK   55  A    between atoms: _121  and  _122
REMARK   56  A    between atoms: _125  and  _127
REMARK   57  A    between atoms: _127  and  _128
REMARK   58  A    between atoms: _127  and  _130
REMARK   59  A    between atoms: _130  and  _131
REMARK   60  A    between atoms: _141  and  _143
REMARK   61  A    between atoms: _143  and  _144
REMARK   62  A    between atoms: _143  and  _146
REMARK   63  A    between atoms: _146  and  _147
REMARK   64  A    between atoms: _147  and  _148
REMARK   65  A    between atoms: _148  and  _149
REMARK   66  A    between atoms: _149  and  _150
REMARK   67  A    between atoms: _155  and  _156
REMARK   68  A    between atoms: _161  and  _163
REMARK   69  A    between atoms: _163  and  _164
REMARK   70  A    between atoms: _163  and  _166
REMARK   71  A    between atoms: _166  and  _167
REMARK   72  A    between atoms: _167  and  _168
REMARK   73  A    between atoms: _171  and  _173
REMARK   74  A    between atoms: _173  and  _174
REMARK   75  A    between atoms: _173  and  _176
REMARK   76  A    between atoms: _176  and  _177
REMARK   77  A    between atoms: _181  and  _182
REMARK   78  A    between atoms: _187  and  _189
REMARK   79  A    between atoms: _189  and  _190
REMARK   80  A    between atoms: _189  and  _192
REMARK   81  A    between atoms: _192  and  _193
REMARK   82  A    between atoms: _193  and  _194
REMARK   83  A    between atoms: _199  and  _201
REMARK   84  A    between atoms: _201  and  _202
REMARK   85  A    between atoms: _201  and  _204
REMARK   86  A    between atoms: _204  and  _205
REMARK   87  A    between atoms: _210  and  _212
REMARK   88  A    between atoms: _212  and  _213
REMARK   89  A    between atoms: _212  and  _215
REMARK   90  A    between atoms: _215  and  _216
REMARK   91  A    between atoms: _216  and  _217
REMARK   92  A    between atoms: _217  and  _218
REMARK   93  A    between atoms: _218  and  _219
REMARK   94  A    between atoms: _223  and  _225
REMARK   95  A    between atoms: _225  and  _226
REMARK   96  A    between atoms: _225  and  _228
REMARK   97  A    between atoms: _228  and  _229
REMARK   98  A    between atoms: _239  and  _241
REMARK   99  A    between atoms: _241  and  _242
REMARK  100  A    between atoms: _241  and  _244
REMARK  101  A    between atoms: _244  and  _245
REMARK  102  A    between atoms: _250  and  _251
REMARK                            x       y       z     vdW  Elec       q    Type
REMARK                         _______ _______ _______ _____ _____    ______ ____
ROOT
ATOM      1  O   HOH     1       2.990   5.315 -13.175  0.00  0.00    +0.000 OA
ENDROOT
TORSDOF 0
REMARK  Name = ../refined-set-2016/3hl5/3hl5_pocket.pdb
REMARK  102 active torsions:
REMARK  status: ('A' for Active; 'I' for Inactive)
REMARK    1  A    between atoms: _1  and  _3
REMARK    2  A    between atoms: _3  and  _4
REMARK    3  A    between atoms: _3  and  _6
REMARK    4  A    between atoms: _9  and  _11
REMARK    5  A    between atoms: _11  and  _12
REMARK    6  A    between atoms: _11  and  _14
REMARK    7  A    between atoms: _14  and  _15
REMARK    8  A    between atoms: _18  and  _20
REMARK    9  A    between atoms: _20  and  _21
REMARK   10  A    between atoms: _20  and  _23
REMARK   11  A    between atoms: _23  and  _24
REMARK   12  A    between atoms: _30  and  _32
REMARK   13  A    between atoms: _32  and  _33
REMARK   14  A    between atoms: _32  and  _35
REMARK   15  A    between atoms: _35  and  _36
REMARK   16  A    between atoms: _36  and  _37
REMARK   17  A    between atoms: _40  and  _42
REMARK   18  A    between atoms: _42  and  _43
REMARK   19  A    between atoms: _42  and  _45
REMARK   20  A    between atoms: _45  and  _46
REMARK   21  A    between atoms: _49  and  _51
REMARK   22  A    between atoms: _51  and  _52
REMARK   23  A    between atoms: _51  and  _54
REMARK   24  A    between atoms: _54  and  _55
REMARK   25  A    between atoms: _55  and  _56
REMARK   26  A    between atoms: _56  and  _57
REMARK   27  A    between atoms: _57  and  _58
REMARK   28  A    between atoms: _62  and  _64
REMARK   29  A    between atoms: _64  and  _65
REMARK   30  A    between atoms: _64  and  _67
REMARK   31  A    between atoms: _70  and  _72
REMARK   32  A    between atoms: _72  and  _73
REMARK   33  A    between atoms: _72  and  _75
REMARK   34  A    between atoms: _75  and  _76
REMARK   35  A    between atoms: _76  and  _77
REMARK   36  A    between atoms: _77  and  _78
REMARK   37  A    between atoms: _78  and  _79
REMARK   38  A    between atoms: _83  and  _85
REMARK   39  A    between atoms: _85  and  _86
REMARK   40  A    between atoms: _88  and  _90
REMARK   41  A    between atoms: _90  and  _91
REMARK   42  A    between atoms: _93  and  _95
REMARK   43  A    between atoms: _95  and  _96
REMARK   44  A    between atoms: _98  and  _100
REMARK   45  A    between atoms: _100  and  _101
REMARK   46  A    between atoms: _100  and  _103
REMARK   47  A    between atoms: _103  and  _104
REMARK   48  A    between atoms: _107  and  _109
REMARK   49  A    between atoms: _109  and  _110
REMARK   50  A    between atoms: _109  and  _112
REMARK   51  A    between atoms: _112  and  _113
REMARK   52  A    between atoms: _116  and  _118
REMARK   53  A    between atoms: _118  and  _119
REMARK   54  A    between atoms: _118  and  _121
REMARK   55  A    between atoms: _121  and  _122
REMARK   56  A    between atoms: _125  and  _127
REMARK   57  A    between atoms: _127  and  _128
REMARK   58  A    between atoms: _127  and  _130
REMARK   59  A    between atoms: _130  and  _131
REMARK   60  A    between atoms: _141  and  _143
REMARK   61  A    between atoms: _143  and  _144
REMARK   62  A    between atoms: _143  and  _146
REMARK   63  A    between atoms: _146  and  _147
REMARK   64  A    between atoms: _147  and  _148
REMARK   65  A    between atoms: _148  and  _149
REMARK   66  A    between atoms: _149  and  _150
REMARK   67  A    between atoms: _155  and  _156
REMARK   68  A    between atoms: _161  and  _163
REMARK   69  A    between atoms: _163  and  _164
REMARK   70  A    between atoms: _163  and  _166
REMARK   71  A    between atoms: _166  and  _167
REMARK   72  A    between atoms: _167  and  _168
REMARK   73  A    between atoms: _171  and  _173
REMARK   74  A    between atoms: _173  and  _174
REMARK   75  A    between atoms: _173  and  _176
REMARK   76  A    between atoms: _176  and  _177
REMARK   77  A    between atoms: _181  and  _182
REMARK   78  A    between atoms: _187  and  _189
REMARK   79  A    between atoms: _189  and  _190
REMARK   80  A    between atoms: _189  and  _192
REMARK   81  A    between atoms: _192  and  _193
REMARK   82  A    between atoms: _193  and  _194
REMARK   83  A    between atoms: _199  and  _201
REMARK   84  A    between atoms: _201  and  _202
REMARK   85  A    between atoms: _201  and  _204
REMARK   86  A    between atoms: _204  and  _205
REMARK   87  A    between atoms: _210  and  _212
REMARK   88  A    between atoms: _212  and  _213
REMARK   89  A    between atoms: _212  and  _215
REMARK   90  A    between atoms: _215  and  _216
REMARK   91  A    between atoms: _216  and  _217
REMARK   92  A    between atoms: _217  and  _218
REMARK   93  A    between atoms: _218  and  _219
REMARK   94  A    between atoms: _223  and  _225
REMARK   95  A    between atoms: _225  and  _226
REMARK   96  A    between atoms: _225  and  _228
REMARK   97  A    between atoms: _228  and  _229
REMARK   98  A    between atoms: _239  and  _241
REMARK   99  A    between atoms: _241  and  _242
REMARK  100  A    between atoms: _241  and  _244
REMARK  101  A    between atoms: _244  and  _245
REMARK  102  A    between atoms: _250  and  _251
REMARK                            x       y       z     vdW  Elec       q    Type
REMARK                         _______ _______ _______ _____ _____    ______ ____
ROOT
ATOM      1  O   HOH     1       4.778   3.974 -14.679  0.00  0.00    +0.000 OA
ENDROOT
TORSDOF 0
REMARK  Name = ../refined-set-2016/3hl5/3hl5_pocket.pdb
REMARK  102 active torsions:
REMARK  status: ('A' for Active; 'I' for Inactive)
REMARK    1  A    between atoms: _1  and  _3
REMARK    2  A    between atoms: _3  and  _4
REMARK    3  A    between atoms: _3  and  _6
REMARK    4  A    between atoms: _9  and  _11
REMARK    5  A    between atoms: _11  and  _12
REMARK    6  A    between atoms: _11  and  _14
REMARK    7  A    between atoms: _14  and  _15
REMARK    8  A    between atoms: _18  and  _20
REMARK    9  A    between atoms: _20  and  _21
REMARK   10  A    between atoms: _20  and  _23
REMARK   11  A    between atoms: _23  and  _24
REMARK   12  A    between atoms: _30  and  _32
REMARK   13  A    between atoms: _32  and  _33
REMARK   14  A    between atoms: _32  and  _35
REMARK   15  A    between atoms: _35  and  _36
REMARK   16  A    between atoms: _36  and  _37
REMARK   17  A    between atoms: _40  and  _42
REMARK   18  A    between atoms: _42  and  _43
REMARK   19  A    between atoms: _42  and  _45
REMARK   20  A    between atoms: _45  and  _46
REMARK   21  A    between atoms: _49  and  _51
REMARK   22  A    between atoms: _51  and  _52
REMARK   23  A    between atoms: _51  and  _54
REMARK   24  A    between atoms: _54  and  _55
REMARK   25  A    between atoms: _55  and  _56
REMARK   26  A    between atoms: _56  and  _57
REMARK   27  A    between atoms: _57  and  _58
REMARK   28  A    between atoms: _62  and  _64
REMARK   29  A    between atoms: _64  and  _65
REMARK   30  A    between atoms: _64  and  _67
REMARK   31  A    between atoms: _70  and  _72
REMARK   32  A    between atoms: _72  and  _73
REMARK   33  A    between atoms: _72  and  _75
REMARK   34  A    between atoms: _75  and  _76
REMARK   35  A    between atoms: _76  and  _77
REMARK   36  A    between atoms: _77  and  _78
REMARK   37  A    between atoms: _78  and  _79
REMARK   38  A    between atoms: _83  and  _85
REMARK   39  A    between atoms: _85  and  _86
REMARK   40  A    between atoms: _88  and  _90
REMARK   41  A    between atoms: _90  and  _91
REMARK   42  A    between atoms: _93  and  _95
REMARK   43  A    between atoms: _95  and  _96
REMARK   44  A    between atoms: _98  and  _100
REMARK   45  A    between atoms: _100  and  _101
REMARK   46  A    between atoms: _100  and  _103
REMARK   47  A    between atoms: _103  and  _104
REMARK   48  A    between atoms: _107  and  _109
REMARK   49  A    between atoms: _109  and  _110
REMARK   50  A    between atoms: _109  and  _112
REMARK   51  A    between atoms: _112  and  _113
REMARK   52  A    between atoms: _116  and  _118
REMARK   53  A    between atoms: _118  and  _119
REMARK   54  A    between atoms: _118  and  _121
REMARK   55  A    between atoms: _121  and  _122
REMARK   56  A    between atoms: _125  and  _127
REMARK   57  A    between atoms: _127  and  _128
REMARK   58  A    between atoms: _127  and  _130
REMARK   59  A    between atoms: _130  and  _131
REMARK   60  A    between atoms: _141  and  _143
REMARK   61  A    between atoms: _143  and  _144
REMARK   62  A    between atoms: _143  and  _146
REMARK   63  A    between atoms: _146  and  _147
REMARK   64  A    between atoms: _147  and  _148
REMARK   65  A    between atoms: _148  and  _149
REMARK   66  A    between atoms: _149  and  _150
REMARK   67  A    between atoms: _155  and  _156
REMARK   68  A    between atoms: _161  and  _163
REMARK   69  A    between atoms: _163  and  _164
REMARK   70  A    between atoms: _163  and  _166
REMARK   71  A    between atoms: _166  and  _167
REMARK   72  A    between atoms: _167  and  _168
REMARK   73  A    between atoms: _171  and  _173
REMARK   74  A    between atoms: _173  and  _174
REMARK   75  A    between atoms: _173  and  _176
REMARK   76  A    between atoms: _176  and  _177
REMARK   77  A    between atoms: _181  and  _182
REMARK   78  A    between atoms: _187  and  _189
REMARK   79  A    between atoms: _189  and  _190
REMARK   80  A    between atoms: _189  and  _192
REMARK   81  A    between atoms: _192  and  _193
REMARK   82  A    between atoms: _193  and  _194
REMARK   83  A    between atoms: _199  and  _201
REMARK   84  A    between atoms: _201  and  _202
REMARK   85  A    between atoms: _201  and  _204
REMARK   86  A    between atoms: _204  and  _205
REMARK   87  A    between atoms: _210  and  _212
REMARK   88  A    between atoms: _212  and  _213
REMARK   89  A    between atoms: _212  and  _215
REMARK   90  A    between atoms: _215  and  _216
REMARK   91  A    between atoms: _216  and  _217
REMARK   92  A    between atoms: _217  and  _218
REMARK   93  A    between atoms: _218  and  _219
REMARK   94  A    between atoms: _223  and  _225
REMARK   95  A    between atoms: _225  and  _226
REMARK   96  A    between atoms: _225  and  _228
REMARK   97  A    between atoms: _228  and  _229
REMARK   98  A    between atoms: _239  and  _241
REMARK   99  A    between atoms: _241  and  _242
REMARK  100  A    between atoms: _241  and  _244
REMARK  101  A    between atoms: _244  and  _245
REMARK  102  A    between atoms: _250  and  _251
REMARK                            x       y       z     vdW  Elec       q    Type
REMARK                         _______ _______ _______ _____ _____    ______ ____
ROOT
ATOM      1  O   HOH     1       8.347   5.766 -16.128  0.00  0.00    +0.000 OA
ENDROOT
TORSDOF 0
REMARK  Name = ../refined-set-2016/3hl5/3hl5_pocket.pdb
REMARK  102 active torsions:
REMARK  status: ('A' for Active; 'I' for Inactive)
REMARK    1  A    between atoms: _1  and  _3
REMARK    2  A    between atoms: _3  and  _4
REMARK    3  A    between atoms: _3  and  _6
REMARK    4  A    between atoms: _9  and  _11
REMARK    5  A    between atoms: _11  and  _12
REMARK    6  A    between atoms: _11  and  _14
REMARK    7  A    between atoms: _14  and  _15
REMARK    8  A    between atoms: _18  and  _20
REMARK    9  A    between atoms: _20  and  _21
REMARK   10  A    between atoms: _20  and  _23
REMARK   11  A    between atoms: _23  and  _24
REMARK   12  A    between atoms: _30  and  _32
REMARK   13  A    between atoms: _32  and  _33
REMARK   14  A    between atoms: _32  and  _35
REMARK   15  A    between atoms: _35  and  _36
REMARK   16  A    between atoms: _36  and  _37
REMARK   17  A    between atoms: _40  and  _42
REMARK   18  A    between atoms: _42  and  _43
REMARK   19  A    between atoms: _42  and  _45
REMARK   20  A    between atoms: _45  and  _46
REMARK   21  A    between atoms: _49  and  _51
REMARK   22  A    between atoms: _51  and  _52
REMARK   23  A    between atoms: _51  and  _54
REMARK   24  A    between atoms: _54  and  _55
REMARK   25  A    between atoms: _55  and  _56
REMARK   26  A    between atoms: _56  and  _57
REMARK   27  A    between atoms: _57  and  _58
REMARK   28  A    between atoms: _62  and  _64
REMARK   29  A    between atoms: _64  and  _65
REMARK   30  A    between atoms: _64  and  _67
REMARK   31  A    between atoms: _70  and  _72
REMARK   32  A    between atoms: _72  and  _73
REMARK   33  A    between atoms: _72  and  _75
REMARK   34  A    between atoms: _75  and  _76
REMARK   35  A    between atoms: _76  and  _77
REMARK   36  A    between atoms: _77  and  _78
REMARK   37  A    between atoms: _78  and  _79
REMARK   38  A    between atoms: _83  and  _85
REMARK   39  A    between atoms: _85  and  _86
REMARK   40  A    between atoms: _88  and  _90
REMARK   41  A    between atoms: _90  and  _91
REMARK   42  A    between atoms: _93  and  _95
REMARK   43  A    between atoms: _95  and  _96
REMARK   44  A    between atoms: _98  and  _100
REMARK   45  A    between atoms: _100  and  _101
REMARK   46  A    between atoms: _100  and  _103
REMARK   47  A    between atoms: _103  and  _104
REMARK   48  A    between atoms: _107  and  _109
REMARK   49  A    between atoms: _109  and  _110
REMARK   50  A    between atoms: _109  and  _112
REMARK   51  A    between atoms: _112  and  _113
REMARK   52  A    between atoms: _116  and  _118
REMARK   53  A    between atoms: _118  and  _119
REMARK   54  A    between atoms: _118  and  _121
REMARK   55  A    between atoms: _121  and  _122
REMARK   56  A    between atoms: _125  and  _127
REMARK   57  A    between atoms: _127  and  _128
REMARK   58  A    between atoms: _127  and  _130
REMARK   59  A    between atoms: _130  and  _131
REMARK   60  A    between atoms: _141  and  _143
REMARK   61  A    between atoms: _143  and  _144
REMARK   62  A    between atoms: _143  and  _146
REMARK   63  A    between atoms: _146  and  _147
REMARK   64  A    between atoms: _147  and  _148
REMARK   65  A    between atoms: _148  and  _149
REMARK   66  A    between atoms: _149  and  _150
REMARK   67  A    between atoms: _155  and  _156
REMARK   68  A    between atoms: _161  and  _163
REMARK   69  A    between atoms: _163  and  _164
REMARK   70  A    between atoms: _163  and  _166
REMARK   71  A    between atoms: _166  and  _167
REMARK   72  A    between atoms: _167  and  _168
REMARK   73  A    between atoms: _171  and  _173
REMARK   74  A    between atoms: _173  and  _174
REMARK   75  A    between atoms: _173  and  _176
REMARK   76  A    between atoms: _176  and  _177
REMARK   77  A    between atoms: _181  and  _182
REMARK   78  A    between atoms: _187  and  _189
REMARK   79  A    between atoms: _189  and  _190
REMARK   80  A    between atoms: _189  and  _192
REMARK   81  A    between atoms: _192  and  _193
REMARK   82  A    between atoms: _193  and  _194
REMARK   83  A    between atoms: _199  and  _201
REMARK   84  A    between atoms: _201  and  _202
REMARK   85  A    between atoms: _201  and  _204
REMARK   86  A    between atoms: _204  and  _205
REMARK   87  A    between atoms: _210  and  _212
REMARK   88  A    between atoms: _212  and  _213
REMARK   89  A    between atoms: _212  and  _215
REMARK   90  A    between atoms: _215  and  _216
REMARK   91  A    between atoms: _216  and  _217
REMARK   92  A    between atoms: _217  and  _218
REMARK   93  A    between atoms: _218  and  _219
REMARK   94  A    between atoms: _223  and  _225
REMARK   95  A    between atoms: _225  and  _226
REMARK   96  A    between atoms: _225  and  _228
REMARK   97  A    between atoms: _228  and  _229
REMARK   98  A    between atoms: _239  and  _241
REMARK   99  A    between atoms: _241  and  _242
REMARK  100  A    between atoms: _241  and  _244
REMARK  101  A    between atoms: _244  and  _245
REMARK  102  A    between atoms: _250  and  _251
REMARK                            x       y       z     vdW  Elec       q    Type
REMARK                         _______ _______ _______ _____ _____    ______ ____
ROOT
ATOM      1  O   HOH     1      12.687   9.812 -17.580  0.00  0.00    +0.000 OA
ENDROOT
TORSDOF 0
