REMARK  Name = ../refined-set-2016/4wkp/4wkp_pocket.pdb
REMARK  226 active torsions:
REMARK  status: ('A' for Active; 'I' for Inactive)
REMARK    1  A    between atoms: _1  and  _3
REMARK    2  A    between atoms: _3  and  _4
REMARK    3  A    between atoms: _6  and  _8
REMARK    4  A    between atoms: _8  and  _9
REMARK    5  A    between atoms: _12  and  _14
REMARK    6  A    between atoms: _14  and  _15
REMARK    7  A    between atoms: _14  and  _17
REMARK    8  A    between atoms: _17  and  _18
REMARK    9  A    between atoms: _18  and  _19
REMARK   10  A    between atoms: _21  and  _23
REMARK   11  A    between atoms: _23  and  _24
REMARK   12  A    between atoms: _23  and  _26
REMARK   13  A    between atoms: _26  and  _27
REMARK   14  A    between atoms: _27  and  _28
REMARK   15  A    between atoms: _31  and  _33
REMARK   16  A    between atoms: _33  and  _34
REMARK   17  A    between atoms: _33  and  _36
REMARK   18  A    between atoms: _36  and  _37
REMARK   19  A    between atoms: _37  and  _38
REMARK   20  A    between atoms: _41  and  _43
REMARK   21  A    between atoms: _43  and  _44
REMARK   22  A    between atoms: _43  and  _46
REMARK   23  A    between atoms: _46  and  _47
REMARK   24  A    between atoms: _49  and  _51
REMARK   25  A    between atoms: _51  and  _52
REMARK   26  A    between atoms: _51  and  _54
REMARK   27  A    between atoms: _54  and  _55
REMARK   28  A    between atoms: _55  and  _56
REMARK   29  A    between atoms: _56  and  _57
REMARK   30  A    between atoms: _57  and  _58
REMARK   31  A    between atoms: _62  and  _64
REMARK   32  A    between atoms: _64  and  _65
REMARK   33  A    between atoms: _64  and  _67
REMARK   34  A    between atoms: _67  and  _68
REMARK   35  A    between atoms: _71  and  _73
REMARK   36  A    between atoms: _73  and  _74
REMARK   37  A    between atoms: _76  and  _78
REMARK   38  A    between atoms: _78  and  _79
REMARK   39  A    between atoms: _78  and  _81
REMARK   40  A    between atoms: _81  and  _82
REMARK   41  A    between atoms: _88  and  _90
REMARK   42  A    between atoms: _90  and  _91
REMARK   43  A    between atoms: _93  and  _95
REMARK   44  A    between atoms: _95  and  _96
REMARK   45  A    between atoms: _95  and  _98
REMARK   46  A    between atoms: _101  and  _103
REMARK   47  A    between atoms: _103  and  _104
REMARK   48  A    between atoms: _107  and  _109
REMARK   49  A    between atoms: _109  and  _110
REMARK   50  A    between atoms: _112  and  _114
REMARK   51  A    between atoms: _114  and  _115
REMARK   52  A    between atoms: _114  and  _117
REMARK   53  A    between atoms: _117  and  _118
REMARK   54  A    between atoms: _120  and  _122
REMARK   55  A    between atoms: _122  and  _123
REMARK   56  A    between atoms: _122  and  _125
REMARK   57  A    between atoms: _125  and  _126
REMARK   58  A    between atoms: _129  and  _131
REMARK   59  A    between atoms: _131  and  _132
REMARK   60  A    between atoms: _131  and  _134
REMARK   61  A    between atoms: _134  and  _135
REMARK   62  A    between atoms: _140  and  _142
REMARK   63  A    between atoms: _142  and  _143
REMARK   64  A    between atoms: _146  and  _148
REMARK   65  A    between atoms: _148  and  _149
REMARK   66  A    between atoms: _148  and  _151
REMARK   67  A    between atoms: _151  and  _152
REMARK   68  A    between atoms: _154  and  _156
REMARK   69  A    between atoms: _156  and  _157
REMARK   70  A    between atoms: _159  and  _161
REMARK   71  A    between atoms: _161  and  _162
REMARK   72  A    between atoms: _161  and  _164
REMARK   73  A    between atoms: _164  and  _165
REMARK   74  A    between atoms: _168  and  _170
REMARK   75  A    between atoms: _170  and  _171
REMARK   76  A    between atoms: _170  and  _173
REMARK   77  A    between atoms: _173  and  _174
REMARK   78  A    between atoms: _174  and  _175
REMARK   79  A    between atoms: _180  and  _182
REMARK   80  A    between atoms: _182  and  _183
REMARK   81  A    between atoms: _182  and  _185
REMARK   82  A    between atoms: _185  and  _186
REMARK   83  A    between atoms: _192  and  _194
REMARK   84  A    between atoms: _194  and  _195
REMARK   85  A    between atoms: _194  and  _197
REMARK   86  A    between atoms: _200  and  _202
REMARK   87  A    between atoms: _202  and  _203
REMARK   88  A    between atoms: _202  and  _205
REMARK   89  A    between atoms: _205  and  _206
REMARK   90  A    between atoms: _211  and  _213
REMARK   91  A    between atoms: _213  and  _214
REMARK   92  A    between atoms: _213  and  _216
REMARK   93  A    between atoms: _216  and  _217
REMARK   94  A    between atoms: _219  and  _221
REMARK   95  A    between atoms: _221  and  _222
REMARK   96  A    between atoms: _221  and  _224
REMARK   97  A    between atoms: _224  and  _225
REMARK   98  A    between atoms: _225  and  _226
REMARK   99  A    between atoms: _226  and  _227
REMARK  100  A    between atoms: _227  and  _228
REMARK  101  A    between atoms: _232  and  _234
REMARK  102  A    between atoms: _234  and  _235
REMARK  103  A    between atoms: _234  and  _237
REMARK  104  A    between atoms: _237  and  _238
REMARK  105  A    between atoms: _241  and  _243
REMARK  106  A    between atoms: _243  and  _244
REMARK  107  A    between atoms: _247  and  _249
REMARK  108  A    between atoms: _249  and  _250
REMARK  109  A    between atoms: _249  and  _252
REMARK  110  A    between atoms: _255  and  _257
REMARK  111  A    between atoms: _257  and  _258
REMARK  112  A    between atoms: _257  and  _260
REMARK  113  A    between atoms: _260  and  _261
REMARK  114  A    between atoms: _261  and  _262
REMARK  115  A    between atoms: _265  and  _267
REMARK  116  A    between atoms: _267  and  _268
REMARK  117  A    between atoms: _267  and  _270
REMARK  118  A    between atoms: _270  and  _271
REMARK  119  A    between atoms: _271  and  _272
REMARK  120  A    between atoms: _274  and  _276
REMARK  121  A    between atoms: _276  and  _277
REMARK  122  A    between atoms: _276  and  _279
REMARK  123  A    between atoms: _279  and  _280
REMARK  124  A    between atoms: _280  and  _281
REMARK  125  A    between atoms: _284  and  _286
REMARK  126  A    between atoms: _286  and  _287
REMARK  127  A    between atoms: _289  and  _291
REMARK  128  A    between atoms: _291  and  _292
REMARK  129  A    between atoms: _291  and  _294
REMARK  130  A    between atoms: _294  and  _295
REMARK  131  A    between atoms: _295  and  _296
REMARK  132  A    between atoms: _296  and  _297
REMARK  133  A    between atoms: _306  and  _308
REMARK  134  A    between atoms: _308  and  _309
REMARK  135  A    between atoms: _308  and  _311
REMARK  136  A    between atoms: _311  and  _312
REMARK  137  A    between atoms: _314  and  _316
REMARK  138  A    between atoms: _316  and  _317
REMARK  139  A    between atoms: _316  and  _319
REMARK  140  A    between atoms: _319  and  _320
REMARK  141  A    between atoms: _323  and  _325
REMARK  142  A    between atoms: _325  and  _326
REMARK  143  A    between atoms: _325  and  _328
REMARK  144  A    between atoms: _328  and  _329
REMARK  145  A    between atoms: _331  and  _333
REMARK  146  A    between atoms: _333  and  _334
REMARK  147  A    between atoms: _333  and  _336
REMARK  148  A    between atoms: _336  and  _337
REMARK  149  A    between atoms: _340  and  _342
REMARK  150  A    between atoms: _342  and  _343
REMARK  151  A    between atoms: _342  and  _345
REMARK  152  A    between atoms: _345  and  _346
REMARK  153  A    between atoms: _351  and  _353
REMARK  154  A    between atoms: _353  and  _354
REMARK  155  A    between atoms: _357  and  _359
REMARK  156  A    between atoms: _359  and  _360
REMARK  157  A    between atoms: _359  and  _362
REMARK  158  A    between atoms: _362  and  _363
REMARK  159  A    between atoms: _366  and  _368
REMARK  160  A    between atoms: _368  and  _369
REMARK  161  A    between atoms: _372  and  _374
REMARK  162  A    between atoms: _374  and  _375
REMARK  163  A    between atoms: _377  and  _379
REMARK  164  A    between atoms: _379  and  _380
REMARK  165  A    between atoms: _379  and  _382
REMARK  166  A    between atoms: _382  and  _383
REMARK  167  A    between atoms: _385  and  _387
REMARK  168  A    between atoms: _387  and  _388
REMARK  169  A    between atoms: _387  and  _390
REMARK  170  A    between atoms: _390  and  _391
REMARK  171  A    between atoms: _397  and  _399
REMARK  172  A    between atoms: _399  and  _400
REMARK  173  A    between atoms: _399  and  _402
REMARK  174  A    between atoms: _402  and  _403
REMARK  175  A    between atoms: _406  and  _408
REMARK  176  A    between atoms: _408  and  _409
REMARK  177  A    between atoms: _408  and  _411
REMARK  178  A    between atoms: _411  and  _412
REMARK  179  A    between atoms: _415  and  _417
REMARK  180  A    between atoms: _417  and  _418
REMARK  181  A    between atoms: _417  and  _420
REMARK  182  A    between atoms: _420  and  _421
REMARK  183  A    between atoms: _423  and  _425
REMARK  184  A    between atoms: _425  and  _426
REMARK  185  A    between atoms: _425  and  _428
REMARK  186  A    between atoms: _428  and  _429
REMARK  187  A    between atoms: _432  and  _434
REMARK  188  A    between atoms: _434  and  _435
REMARK  189  A    between atoms: _434  and  _437
REMARK  190  A    between atoms: _437  and  _438
REMARK  191  A    between atoms: _441  and  _443
REMARK  192  A    between atoms: _443  and  _444
REMARK  193  A    between atoms: _443  and  _446
REMARK  194  A    between atoms: _446  and  _447
REMARK  195  A    between atoms: _449  and  _451
REMARK  196  A    between atoms: _451  and  _452
REMARK  197  A    between atoms: _455  and  _457
REMARK  198  A    between atoms: _457  and  _458
REMARK  199  A    between atoms: _457  and  _460
REMARK  200  A    between atoms: _460  and  _461
REMARK  201  A    between atoms: _467  and  _469
REMARK  202  A    between atoms: _469  and  _470
REMARK  203  A    between atoms: _469  and  _472
REMARK  204  A    between atoms: _472  and  _473
REMARK  205  A    between atoms: _476  and  _478
REMARK  206  A    between atoms: _478  and  _479
REMARK  207  A    between atoms: _478  and  _481
REMARK  208  A    between atoms: _481  and  _482
REMARK  209  A    between atoms: _487  and  _489
REMARK  210  A    between atoms: _489  and  _490
REMARK  211  A    between atoms: _489  and  _492
REMARK  212  A    between atoms: _492  and  _493
REMARK  213  A    between atoms: _499  and  _501
REMARK  214  A    between atoms: _501  and  _502
REMARK  215  A    between atoms: _501  and  _504
REMARK  216  A    between atoms: _504  and  _505
REMARK  217  A    between atoms: _509  and  _510
REMARK  218  A    between atoms: _515  and  _517
REMARK  219  A    between atoms: _517  and  _518
REMARK  220  A    between atoms: _517  and  _520
REMARK  221  A    between atoms: _520  and  _521
REMARK  222  A    between atoms: _521  and  _522
REMARK  223  A    between atoms: _525  and  _527
REMARK  224  A    between atoms: _527  and  _528
REMARK  225  A    between atoms: _527  and  _530
REMARK  226  A    between atoms: _530  and  _531
REMARK                            x       y       z     vdW  Elec       q    Type
REMARK                         _______ _______ _______ _____ _____    ______ ____
ROOT
ATOM      1  C   ALA A   2      31.888  68.596  23.193  0.00  0.00    +0.241 C 
ATOM      2  N   MET A   3      33.023  67.953  23.436  0.00  0.00    -0.298 N 
ATOM      3  H   MET A   3      33.388  67.922  24.409  0.00  0.00    +0.150 HD
ATOM      4  O   ALA A   2      31.383  68.678  22.069  0.00  0.00    -0.273 OA
ENDROOT
BRANCH   1   5
ATOM      5  CA  ALA A   2      31.225  69.266  24.396  0.00  0.00    +0.149 C 
ATOM      6  CB  ALA A   2      31.905  70.588  24.699  0.00  0.00    +0.031 C 
BRANCH   5   8
ATOM      7  C   GLY A   1      30.225  67.588  25.868  0.00  0.00    +0.240 C 
ATOM      8  N   ALA A   2      31.240  68.397  25.591  0.00  0.00    -0.297 N 
ATOM      9  H   ALA A   2      32.062  68.420  26.228  0.00  0.00    +0.150 HD
ATOM     10  O   GLY A   1      29.206  67.543  25.172  0.00  0.00    -0.274 OA
BRANCH   7  11
ATOM     11  CA  GLY A   1      30.362  66.699  27.084  0.00  0.00    +0.169 C 
BRANCH  11  12
ATOM     12  N   GLY A   1      29.096  66.022  27.295  0.00  0.00    -0.236 NA
ATOM     13  H   GLY A   1      28.690  65.472  26.511  0.00  0.00    +0.142 HD
ENDBRANCH  11  12
ENDBRANCH   7  11
ENDBRANCH   5   8
ENDBRANCH   1   5
BRANCH   2  14
ATOM     14  CA  MET A   3      33.773  67.288  22.377  0.00  0.00    +0.138 C 
BRANCH  14  15
ATOM     15  C   MET A   3      33.642  65.785  22.533  0.00  0.00    +0.227 C 
ATOM     16  O   MET A   3      33.451  65.277  23.656  0.00  0.00    -0.286 OA
ENDBRANCH  14  15
BRANCH  14  17
ATOM     17  CB  MET A   3      35.242  67.681  22.453  0.00  0.00    +0.039 C 
BRANCH  17  18
ATOM     18  CG  MET A   3      35.543  69.127  22.115  0.00  0.00    +0.060 C 
BRANCH  18  19
ATOM     19  SD  MET A   3      37.248  69.578  22.534  0.00  0.00    -0.139 S 
ATOM     20  CE  MET A   3      37.275  69.197  24.262  0.00  0.00    +0.069 C 
ENDBRANCH  18  19
ENDBRANCH  17  18
ENDBRANCH  14  17
ENDBRANCH   2  14
TORSDOF 9
REMARK  Name = ../refined-set-2016/4wkp/4wkp_pocket.pdb
REMARK  226 active torsions:
REMARK  status: ('A' for Active; 'I' for Inactive)
REMARK    1  A    between atoms: _1  and  _3
REMARK    2  A    between atoms: _3  and  _4
REMARK    3  A    between atoms: _6  and  _8
REMARK    4  A    between atoms: _8  and  _9
REMARK    5  A    between atoms: _12  and  _14
REMARK    6  A    between atoms: _14  and  _15
REMARK    7  A    between atoms: _14  and  _17
REMARK    8  A    between atoms: _17  and  _18
REMARK    9  A    between atoms: _18  and  _19
REMARK   10  A    between atoms: _21  and  _23
REMARK   11  A    between atoms: _23  and  _24
REMARK   12  A    between atoms: _23  and  _26
REMARK   13  A    between atoms: _26  and  _27
REMARK   14  A    between atoms: _27  and  _28
REMARK   15  A    between atoms: _31  and  _33
REMARK   16  A    between atoms: _33  and  _34
REMARK   17  A    between atoms: _33  and  _36
REMARK   18  A    between atoms: _36  and  _37
REMARK   19  A    between atoms: _37  and  _38
REMARK   20  A    between atoms: _41  and  _43
REMARK   21  A    between atoms: _43  and  _44
REMARK   22  A    between atoms: _43  and  _46
REMARK   23  A    between atoms: _46  and  _47
REMARK   24  A    between atoms: _49  and  _51
REMARK   25  A    between atoms: _51  and  _52
REMARK   26  A    between atoms: _51  and  _54
REMARK   27  A    between atoms: _54  and  _55
REMARK   28  A    between atoms: _55  and  _56
REMARK   29  A    between atoms: _56  and  _57
REMARK   30  A    between atoms: _57  and  _58
REMARK   31  A    between atoms: _62  and  _64
REMARK   32  A    between atoms: _64  and  _65
REMARK   33  A    between atoms: _64  and  _67
REMARK   34  A    between atoms: _67  and  _68
REMARK   35  A    between atoms: _71  and  _73
REMARK   36  A    between atoms: _73  and  _74
REMARK   37  A    between atoms: _76  and  _78
REMARK   38  A    between atoms: _78  and  _79
REMARK   39  A    between atoms: _78  and  _81
REMARK   40  A    between atoms: _81  and  _82
REMARK   41  A    between atoms: _88  and  _90
REMARK   42  A    between atoms: _90  and  _91
REMARK   43  A    between atoms: _93  and  _95
REMARK   44  A    between atoms: _95  and  _96
REMARK   45  A    between atoms: _95  and  _98
REMARK   46  A    between atoms: _101  and  _103
REMARK   47  A    between atoms: _103  and  _104
REMARK   48  A    between atoms: _107  and  _109
REMARK   49  A    between atoms: _109  and  _110
REMARK   50  A    between atoms: _112  and  _114
REMARK   51  A    between atoms: _114  and  _115
REMARK   52  A    between atoms: _114  and  _117
REMARK   53  A    between atoms: _117  and  _118
REMARK   54  A    between atoms: _120  and  _122
REMARK   55  A    between atoms: _122  and  _123
REMARK   56  A    between atoms: _122  and  _125
REMARK   57  A    between atoms: _125  and  _126
REMARK   58  A    between atoms: _129  and  _131
REMARK   59  A    between atoms: _131  and  _132
REMARK   60  A    between atoms: _131  and  _134
REMARK   61  A    between atoms: _134  and  _135
REMARK   62  A    between atoms: _140  and  _142
REMARK   63  A    between atoms: _142  and  _143
REMARK   64  A    between atoms: _146  and  _148
REMARK   65  A    between atoms: _148  and  _149
REMARK   66  A    between atoms: _148  and  _151
REMARK   67  A    between atoms: _151  and  _152
REMARK   68  A    between atoms: _154  and  _156
REMARK   69  A    between atoms: _156  and  _157
REMARK   70  A    between atoms: _159  and  _161
REMARK   71  A    between atoms: _161  and  _162
REMARK   72  A    between atoms: _161  and  _164
REMARK   73  A    between atoms: _164  and  _165
REMARK   74  A    between atoms: _168  and  _170
REMARK   75  A    between atoms: _170  and  _171
REMARK   76  A    between atoms: _170  and  _173
REMARK   77  A    between atoms: _173  and  _174
REMARK   78  A    between atoms: _174  and  _175
REMARK   79  A    between atoms: _180  and  _182
REMARK   80  A    between atoms: _182  and  _183
REMARK   81  A    between atoms: _182  and  _185
REMARK   82  A    between atoms: _185  and  _186
REMARK   83  A    between atoms: _192  and  _194
REMARK   84  A    between atoms: _194  and  _195
REMARK   85  A    between atoms: _194  and  _197
REMARK   86  A    between atoms: _200  and  _202
REMARK   87  A    between atoms: _202  and  _203
REMARK   88  A    between atoms: _202  and  _205
REMARK   89  A    between atoms: _205  and  _206
REMARK   90  A    between atoms: _211  and  _213
REMARK   91  A    between atoms: _213  and  _214
REMARK   92  A    between atoms: _213  and  _216
REMARK   93  A    between atoms: _216  and  _217
REMARK   94  A    between atoms: _219  and  _221
REMARK   95  A    between atoms: _221  and  _222
REMARK   96  A    between atoms: _221  and  _224
REMARK   97  A    between atoms: _224  and  _225
REMARK   98  A    between atoms: _225  and  _226
REMARK   99  A    between atoms: _226  and  _227
REMARK  100  A    between atoms: _227  and  _228
REMARK  101  A    between atoms: _232  and  _234
REMARK  102  A    between atoms: _234  and  _235
REMARK  103  A    between atoms: _234  and  _237
REMARK  104  A    between atoms: _237  and  _238
REMARK  105  A    between atoms: _241  and  _243
REMARK  106  A    between atoms: _243  and  _244
REMARK  107  A    between atoms: _247  and  _249
REMARK  108  A    between atoms: _249  and  _250
REMARK  109  A    between atoms: _249  and  _252
REMARK  110  A    between atoms: _255  and  _257
REMARK  111  A    between atoms: _257  and  _258
REMARK  112  A    between atoms: _257  and  _260
REMARK  113  A    between atoms: _260  and  _261
REMARK  114  A    between atoms: _261  and  _262
REMARK  115  A    between atoms: _265  and  _267
REMARK  116  A    between atoms: _267  and  _268
REMARK  117  A    between atoms: _267  and  _270
REMARK  118  A    between atoms: _270  and  _271
REMARK  119  A    between atoms: _271  and  _272
REMARK  120  A    between atoms: _274  and  _276
REMARK  121  A    between atoms: _276  and  _277
REMARK  122  A    between atoms: _276  and  _279
REMARK  123  A    between atoms: _279  and  _280
REMARK  124  A    between atoms: _280  and  _281
REMARK  125  A    between atoms: _284  and  _286
REMARK  126  A    between atoms: _286  and  _287
REMARK  127  A    between atoms: _289  and  _291
REMARK  128  A    between atoms: _291  and  _292
REMARK  129  A    between atoms: _291  and  _294
REMARK  130  A    between atoms: _294  and  _295
REMARK  131  A    between atoms: _295  and  _296
REMARK  132  A    between atoms: _296  and  _297
REMARK  133  A    between atoms: _306  and  _308
REMARK  134  A    between atoms: _308  and  _309
REMARK  135  A    between atoms: _308  and  _311
REMARK  136  A    between atoms: _311  and  _312
REMARK  137  A    between atoms: _314  and  _316
REMARK  138  A    between atoms: _316  and  _317
REMARK  139  A    between atoms: _316  and  _319
REMARK  140  A    between atoms: _319  and  _320
REMARK  141  A    between atoms: _323  and  _325
REMARK  142  A    between atoms: _325  and  _326
REMARK  143  A    between atoms: _325  and  _328
REMARK  144  A    between atoms: _328  and  _329
REMARK  145  A    between atoms: _331  and  _333
REMARK  146  A    between atoms: _333  and  _334
REMARK  147  A    between atoms: _333  and  _336
REMARK  148  A    between atoms: _336  and  _337
REMARK  149  A    between atoms: _340  and  _342
REMARK  150  A    between atoms: _342  and  _343
REMARK  151  A    between atoms: _342  and  _345
REMARK  152  A    between atoms: _345  and  _346
REMARK  153  A    between atoms: _351  and  _353
REMARK  154  A    between atoms: _353  and  _354
REMARK  155  A    between atoms: _357  and  _359
REMARK  156  A    between atoms: _359  and  _360
REMARK  157  A    between atoms: _359  and  _362
REMARK  158  A    between atoms: _362  and  _363
REMARK  159  A    between atoms: _366  and  _368
REMARK  160  A    between atoms: _368  and  _369
REMARK  161  A    between atoms: _372  and  _374
REMARK  162  A    between atoms: _374  and  _375
REMARK  163  A    between atoms: _377  and  _379
REMARK  164  A    between atoms: _379  and  _380
REMARK  165  A    between atoms: _379  and  _382
REMARK  166  A    between atoms: _382  and  _383
REMARK  167  A    between atoms: _385  and  _387
REMARK  168  A    between atoms: _387  and  _388
REMARK  169  A    between atoms: _387  and  _390
REMARK  170  A    between atoms: _390  and  _391
REMARK  171  A    between atoms: _397  and  _399
REMARK  172  A    between atoms: _399  and  _400
REMARK  173  A    between atoms: _399  and  _402
REMARK  174  A    between atoms: _402  and  _403
REMARK  175  A    between atoms: _406  and  _408
REMARK  176  A    between atoms: _408  and  _409
REMARK  177  A    between atoms: _408  and  _411
REMARK  178  A    between atoms: _411  and  _412
REMARK  179  A    between atoms: _415  and  _417
REMARK  180  A    between atoms: _417  and  _418
REMARK  181  A    between atoms: _417  and  _420
REMARK  182  A    between atoms: _420  and  _421
REMARK  183  A    between atoms: _423  and  _425
REMARK  184  A    between atoms: _425  and  _426
REMARK  185  A    between atoms: _425  and  _428
REMARK  186  A    between atoms: _428  and  _429
REMARK  187  A    between atoms: _432  and  _434
REMARK  188  A    between atoms: _434  and  _435
REMARK  189  A    between atoms: _434  and  _437
REMARK  190  A    between atoms: _437  and  _438
REMARK  191  A    between atoms: _441  and  _443
REMARK  192  A    between atoms: _443  and  _444
REMARK  193  A    between atoms: _443  and  _446
REMARK  194  A    between atoms: _446  and  _447
REMARK  195  A    between atoms: _449  and  _451
REMARK  196  A    between atoms: _451  and  _452
REMARK  197  A    between atoms: _455  and  _457
REMARK  198  A    between atoms: _457  and  _458
REMARK  199  A    between atoms: _457  and  _460
REMARK  200  A    between atoms: _460  and  _461
REMARK  201  A    between atoms: _467  and  _469
REMARK  202  A    between atoms: _469  and  _470
REMARK  203  A    between atoms: _469  and  _472
REMARK  204  A    between atoms: _472  and  _473
REMARK  205  A    between atoms: _476  and  _478
REMARK  206  A    between atoms: _478  and  _479
REMARK  207  A    between atoms: _478  and  _481
REMARK  208  A    between atoms: _481  and  _482
REMARK  209  A    between atoms: _487  and  _489
REMARK  210  A    between atoms: _489  and  _490
REMARK  211  A    between atoms: _489  and  _492
REMARK  212  A    between atoms: _492  and  _493
REMARK  213  A    between atoms: _499  and  _501
REMARK  214  A    between atoms: _501  and  _502
REMARK  215  A    between atoms: _501  and  _504
REMARK  216  A    between atoms: _504  and  _505
REMARK  217  A    between atoms: _509  and  _510
REMARK  218  A    between atoms: _515  and  _517
REMARK  219  A    between atoms: _517  and  _518
REMARK  220  A    between atoms: _517  and  _520
REMARK  221  A    between atoms: _520  and  _521
REMARK  222  A    between atoms: _521  and  _522
REMARK  223  A    between atoms: _525  and  _527
REMARK  224  A    between atoms: _527  and  _528
REMARK  225  A    between atoms: _527  and  _530
REMARK  226  A    between atoms: _530  and  _531
REMARK                            x       y       z     vdW  Elec       q    Type
REMARK                         _______ _______ _______ _____ _____    ______ ____
ROOT
ATOM      1  C   GLU A   1      36.611  63.412  24.832  0.00  0.00    +0.238 C 
ATOM      2  O   GLU A   1      37.175  62.698  25.664  0.00  0.00    -0.274 OA
ATOM      3  N   GLU A   2      35.653  64.270  25.163  0.00  0.00    -0.298 N 
ATOM      4  H   GLU A   2      35.240  64.885  24.433  0.00  0.00    +0.150 HD
ENDROOT
BRANCH   1   5
ATOM      5  CA  GLU A   1      37.000  63.345  23.356  0.00  0.00    +0.145 C 
BRANCH   5   6
ATOM      6  N   GLU A   1      35.931  63.729  22.469  0.00  0.00    -0.238 NA
ATOM      7  H   GLU A   1      36.075  64.535  21.828  0.00  0.00    +0.142 HD
ENDBRANCH   5   6
BRANCH   5   8
ATOM      8  CB  GLU A   1      38.230  64.234  23.125  0.00  0.00    +0.038 C 
BRANCH   8   9
ATOM      9  CG  GLU A   1      38.926  64.034  21.775  0.00  0.00    +0.116 C 
BRANCH   9  10
ATOM     10  CD  GLU A   1      38.326  64.820  20.612  0.00  0.00    +0.365 C 
ATOM     11  OE2 GLU A   1      37.245  65.439  20.758  0.00  0.00    -0.246 OA
ATOM     12  OE1 GLU A   1      38.927  64.801  19.501  0.00  0.00    -0.246 OA
ENDBRANCH   9  10
ENDBRANCH   8   9
ENDBRANCH   5   8
ENDBRANCH   1   5
BRANCH   3  13
ATOM     13  CA  GLU A   2      35.175  64.360  26.531  0.00  0.00    +0.137 C 
BRANCH  13  14
ATOM     14  C   GLU A   2      34.225  63.238  26.913  0.00  0.00    +0.227 C 
ATOM     15  O   GLU A   2      34.106  62.912  28.099  0.00  0.00    -0.286 OA
ENDBRANCH  13  14
BRANCH  13  16
ATOM     16  CB  GLU A   2      34.524  65.733  26.774  0.00  0.00    +0.039 C 
BRANCH  16  17
ATOM     17  CG  GLU A   2      35.586  66.844  26.841  0.00  0.00    +0.116 C 
BRANCH  17  18
ATOM     18  CD  GLU A   2      35.035  68.256  26.754  0.00  0.00    +0.365 C 
ATOM     19  OE2 GLU A   2      35.669  69.146  27.363  0.00  0.00    -0.246 OA
ATOM     20  OE1 GLU A   2      34.015  68.485  26.067  0.00  0.00    -0.246 OA
ENDBRANCH  17  18
ENDBRANCH  16  17
ENDBRANCH  13  16
ENDBRANCH   3  13
TORSDOF 10
REMARK  Name = ../refined-set-2016/4wkp/4wkp_pocket.pdb
REMARK  226 active torsions:
REMARK  status: ('A' for Active; 'I' for Inactive)
REMARK    1  A    between atoms: _1  and  _3
REMARK    2  A    between atoms: _3  and  _4
REMARK    3  A    between atoms: _6  and  _8
REMARK    4  A    between atoms: _8  and  _9
REMARK    5  A    between atoms: _12  and  _14
REMARK    6  A    between atoms: _14  and  _15
REMARK    7  A    between atoms: _14  and  _17
REMARK    8  A    between atoms: _17  and  _18
REMARK    9  A    between atoms: _18  and  _19
REMARK   10  A    between atoms: _21  and  _23
REMARK   11  A    between atoms: _23  and  _24
REMARK   12  A    between atoms: _23  and  _26
REMARK   13  A    between atoms: _26  and  _27
REMARK   14  A    between atoms: _27  and  _28
REMARK   15  A    between atoms: _31  and  _33
REMARK   16  A    between atoms: _33  and  _34
REMARK   17  A    between atoms: _33  and  _36
REMARK   18  A    between atoms: _36  and  _37
REMARK   19  A    between atoms: _37  and  _38
REMARK   20  A    between atoms: _41  and  _43
REMARK   21  A    between atoms: _43  and  _44
REMARK   22  A    between atoms: _43  and  _46
REMARK   23  A    between atoms: _46  and  _47
REMARK   24  A    between atoms: _49  and  _51
REMARK   25  A    between atoms: _51  and  _52
REMARK   26  A    between atoms: _51  and  _54
REMARK   27  A    between atoms: _54  and  _55
REMARK   28  A    between atoms: _55  and  _56
REMARK   29  A    between atoms: _56  and  _57
REMARK   30  A    between atoms: _57  and  _58
REMARK   31  A    between atoms: _62  and  _64
REMARK   32  A    between atoms: _64  and  _65
REMARK   33  A    between atoms: _64  and  _67
REMARK   34  A    between atoms: _67  and  _68
REMARK   35  A    between atoms: _71  and  _73
REMARK   36  A    between atoms: _73  and  _74
REMARK   37  A    between atoms: _76  and  _78
REMARK   38  A    between atoms: _78  and  _79
REMARK   39  A    between atoms: _78  and  _81
REMARK   40  A    between atoms: _81  and  _82
REMARK   41  A    between atoms: _88  and  _90
REMARK   42  A    between atoms: _90  and  _91
REMARK   43  A    between atoms: _93  and  _95
REMARK   44  A    between atoms: _95  and  _96
REMARK   45  A    between atoms: _95  and  _98
REMARK   46  A    between atoms: _101  and  _103
REMARK   47  A    between atoms: _103  and  _104
REMARK   48  A    between atoms: _107  and  _109
REMARK   49  A    between atoms: _109  and  _110
REMARK   50  A    between atoms: _112  and  _114
REMARK   51  A    between atoms: _114  and  _115
REMARK   52  A    between atoms: _114  and  _117
REMARK   53  A    between atoms: _117  and  _118
REMARK   54  A    between atoms: _120  and  _122
REMARK   55  A    between atoms: _122  and  _123
REMARK   56  A    between atoms: _122  and  _125
REMARK   57  A    between atoms: _125  and  _126
REMARK   58  A    between atoms: _129  and  _131
REMARK   59  A    between atoms: _131  and  _132
REMARK   60  A    between atoms: _131  and  _134
REMARK   61  A    between atoms: _134  and  _135
REMARK   62  A    between atoms: _140  and  _142
REMARK   63  A    between atoms: _142  and  _143
REMARK   64  A    between atoms: _146  and  _148
REMARK   65  A    between atoms: _148  and  _149
REMARK   66  A    between atoms: _148  and  _151
REMARK   67  A    between atoms: _151  and  _152
REMARK   68  A    between atoms: _154  and  _156
REMARK   69  A    between atoms: _156  and  _157
REMARK   70  A    between atoms: _159  and  _161
REMARK   71  A    between atoms: _161  and  _162
REMARK   72  A    between atoms: _161  and  _164
REMARK   73  A    between atoms: _164  and  _165
REMARK   74  A    between atoms: _168  and  _170
REMARK   75  A    between atoms: _170  and  _171
REMARK   76  A    between atoms: _170  and  _173
REMARK   77  A    between atoms: _173  and  _174
REMARK   78  A    between atoms: _174  and  _175
REMARK   79  A    between atoms: _180  and  _182
REMARK   80  A    between atoms: _182  and  _183
REMARK   81  A    between atoms: _182  and  _185
REMARK   82  A    between atoms: _185  and  _186
REMARK   83  A    between atoms: _192  and  _194
REMARK   84  A    between atoms: _194  and  _195
REMARK   85  A    between atoms: _194  and  _197
REMARK   86  A    between atoms: _200  and  _202
REMARK   87  A    between atoms: _202  and  _203
REMARK   88  A    between atoms: _202  and  _205
REMARK   89  A    between atoms: _205  and  _206
REMARK   90  A    between atoms: _211  and  _213
REMARK   91  A    between atoms: _213  and  _214
REMARK   92  A    between atoms: _213  and  _216
REMARK   93  A    between atoms: _216  and  _217
REMARK   94  A    between atoms: _219  and  _221
REMARK   95  A    between atoms: _221  and  _222
REMARK   96  A    between atoms: _221  and  _224
REMARK   97  A    between atoms: _224  and  _225
REMARK   98  A    between atoms: _225  and  _226
REMARK   99  A    between atoms: _226  and  _227
REMARK  100  A    between atoms: _227  and  _228
REMARK  101  A    between atoms: _232  and  _234
REMARK  102  A    between atoms: _234  and  _235
REMARK  103  A    between atoms: _234  and  _237
REMARK  104  A    between atoms: _237  and  _238
REMARK  105  A    between atoms: _241  and  _243
REMARK  106  A    between atoms: _243  and  _244
REMARK  107  A    between atoms: _247  and  _249
REMARK  108  A    between atoms: _249  and  _250
REMARK  109  A    between atoms: _249  and  _252
REMARK  110  A    between atoms: _255  and  _257
REMARK  111  A    between atoms: _257  and  _258
REMARK  112  A    between atoms: _257  and  _260
REMARK  113  A    between atoms: _260  and  _261
REMARK  114  A    between atoms: _261  and  _262
REMARK  115  A    between atoms: _265  and  _267
REMARK  116  A    between atoms: _267  and  _268
REMARK  117  A    between atoms: _267  and  _270
REMARK  118  A    between atoms: _270  and  _271
REMARK  119  A    between atoms: _271  and  _272
REMARK  120  A    between atoms: _274  and  _276
REMARK  121  A    between atoms: _276  and  _277
REMARK  122  A    between atoms: _276  and  _279
REMARK  123  A    between atoms: _279  and  _280
REMARK  124  A    between atoms: _280  and  _281
REMARK  125  A    between atoms: _284  and  _286
REMARK  126  A    between atoms: _286  and  _287
REMARK  127  A    between atoms: _289  and  _291
REMARK  128  A    between atoms: _291  and  _292
REMARK  129  A    between atoms: _291  and  _294
REMARK  130  A    between atoms: _294  and  _295
REMARK  131  A    between atoms: _295  and  _296
REMARK  132  A    between atoms: _296  and  _297
REMARK  133  A    between atoms: _306  and  _308
REMARK  134  A    between atoms: _308  and  _309
REMARK  135  A    between atoms: _308  and  _311
REMARK  136  A    between atoms: _311  and  _312
REMARK  137  A    between atoms: _314  and  _316
REMARK  138  A    between atoms: _316  and  _317
REMARK  139  A    between atoms: _316  and  _319
REMARK  140  A    between atoms: _319  and  _320
REMARK  141  A    between atoms: _323  and  _325
REMARK  142  A    between atoms: _325  and  _326
REMARK  143  A    between atoms: _325  and  _328
REMARK  144  A    between atoms: _328  and  _329
REMARK  145  A    between atoms: _331  and  _333
REMARK  146  A    between atoms: _333  and  _334
REMARK  147  A    between atoms: _333  and  _336
REMARK  148  A    between atoms: _336  and  _337
REMARK  149  A    between atoms: _340  and  _342
REMARK  150  A    between atoms: _342  and  _343
REMARK  151  A    between atoms: _342  and  _345
REMARK  152  A    between atoms: _345  and  _346
REMARK  153  A    between atoms: _351  and  _353
REMARK  154  A    between atoms: _353  and  _354
REMARK  155  A    between atoms: _357  and  _359
REMARK  156  A    between atoms: _359  and  _360
REMARK  157  A    between atoms: _359  and  _362
REMARK  158  A    between atoms: _362  and  _363
REMARK  159  A    between atoms: _366  and  _368
REMARK  160  A    between atoms: _368  and  _369
REMARK  161  A    between atoms: _372  and  _374
REMARK  162  A    between atoms: _374  and  _375
REMARK  163  A    between atoms: _377  and  _379
REMARK  164  A    between atoms: _379  and  _380
REMARK  165  A    between atoms: _379  and  _382
REMARK  166  A    between atoms: _382  and  _383
REMARK  167  A    between atoms: _385  and  _387
REMARK  168  A    between atoms: _387  and  _388
REMARK  169  A    between atoms: _387  and  _390
REMARK  170  A    between atoms: _390  and  _391
REMARK  171  A    between atoms: _397  and  _399
REMARK  172  A    between atoms: _399  and  _400
REMARK  173  A    between atoms: _399  and  _402
REMARK  174  A    between atoms: _402  and  _403
REMARK  175  A    between atoms: _406  and  _408
REMARK  176  A    between atoms: _408  and  _409
REMARK  177  A    between atoms: _408  and  _411
REMARK  178  A    between atoms: _411  and  _412
REMARK  179  A    between atoms: _415  and  _417
REMARK  180  A    between atoms: _417  and  _418
REMARK  181  A    between atoms: _417  and  _420
REMARK  182  A    between atoms: _420  and  _421
REMARK  183  A    between atoms: _423  and  _425
REMARK  184  A    between atoms: _425  and  _426
REMARK  185  A    between atoms: _425  and  _428
REMARK  186  A    between atoms: _428  and  _429
REMARK  187  A    between atoms: _432  and  _434
REMARK  188  A    between atoms: _434  and  _435
REMARK  189  A    between atoms: _434  and  _437
REMARK  190  A    between atoms: _437  and  _438
REMARK  191  A    between atoms: _441  and  _443
REMARK  192  A    between atoms: _443  and  _444
REMARK  193  A    between atoms: _443  and  _446
REMARK  194  A    between atoms: _446  and  _447
REMARK  195  A    between atoms: _449  and  _451
REMARK  196  A    between atoms: _451  and  _452
REMARK  197  A    between atoms: _455  and  _457
REMARK  198  A    between atoms: _457  and  _458
REMARK  199  A    between atoms: _457  and  _460
REMARK  200  A    between atoms: _460  and  _461
REMARK  201  A    between atoms: _467  and  _469
REMARK  202  A    between atoms: _469  and  _470
REMARK  203  A    between atoms: _469  and  _472
REMARK  204  A    between atoms: _472  and  _473
REMARK  205  A    between atoms: _476  and  _478
REMARK  206  A    between atoms: _478  and  _479
REMARK  207  A    between atoms: _478  and  _481
REMARK  208  A    between atoms: _481  and  _482
REMARK  209  A    between atoms: _487  and  _489
REMARK  210  A    between atoms: _489  and  _490
REMARK  211  A    between atoms: _489  and  _492
REMARK  212  A    between atoms: _492  and  _493
REMARK  213  A    between atoms: _499  and  _501
REMARK  214  A    between atoms: _501  and  _502
REMARK  215  A    between atoms: _501  and  _504
REMARK  216  A    between atoms: _504  and  _505
REMARK  217  A    between atoms: _509  and  _510
REMARK  218  A    between atoms: _515  and  _517
REMARK  219  A    between atoms: _517  and  _518
REMARK  220  A    between atoms: _517  and  _520
REMARK  221  A    between atoms: _520  and  _521
REMARK  222  A    between atoms: _521  and  _522
REMARK  223  A    between atoms: _525  and  _527
REMARK  224  A    between atoms: _527  and  _528
REMARK  225  A    between atoms: _527  and  _530
REMARK  226  A    between atoms: _530  and  _531
REMARK                            x       y       z     vdW  Elec       q    Type
REMARK                         _______ _______ _______ _____ _____    ______ ____
ROOT
ATOM      1  CA  LYS A   2      29.970  69.948  19.733  0.00  0.00    +0.149 C 
ENDROOT
BRANCH   1   3
ATOM      2  C   SER A   1      27.771  69.182  20.624  0.00  0.00    +0.241 C 
ATOM      3  N   LYS A   2      29.108  69.125  20.580  0.00  0.00    -0.297 N 
ATOM      4  H   LYS A   2      29.574  68.435  21.203  0.00  0.00    +0.150 HD
ATOM      5  O   SER A   1      27.062  69.641  19.735  0.00  0.00    -0.274 OA
BRANCH   2   6
ATOM      6  CA  SER A   1      27.128  68.609  21.881  0.00  0.00    +0.174 C 
BRANCH   6   7
ATOM      7  N   SER A   1      27.938  67.582  22.548  0.00  0.00    -0.236 NA
ATOM      8  H   SER A   1      28.522  67.846  23.367  0.00  0.00    +0.142 HD
ENDBRANCH   6   7
BRANCH   6   9
ATOM      9  CB  SER A   1      26.850  69.760  22.849  0.00  0.00    +0.163 C 
BRANCH   9  10
ATOM     10  OG  SER A   1      28.057  70.356  23.308  0.00  0.00    -0.380 OA
ATOM     11  H   SER A   1      28.563  70.711  22.535  0.00  0.00    +0.211 HD
ENDBRANCH   9  10
ENDBRANCH   6   9
ENDBRANCH   2   6
ENDBRANCH   1   3
BRANCH   1  12
ATOM     12  C   LYS A   2      30.205  71.288  20.446  0.00  0.00    +0.241 C 
ATOM     13  O   LYS A   2      29.525  71.642  21.421  0.00  0.00    -0.273 OA
ATOM     14  N   ILE A   3      31.212  71.997  19.977  0.00  0.00    -0.297 N 
ATOM     15  H   ILE A   3      31.607  71.750  19.047  0.00  0.00    +0.150 HD
BRANCH  14  16
ATOM     16  CA  ILE A   3      31.790  73.109  20.708  0.00  0.00    +0.149 C 
BRANCH  16  17
ATOM     17  C   ILE A   3      30.891  74.341  20.728  0.00  0.00    +0.241 C 
ATOM     18  N   GLY A   4      30.839  74.996  21.882  0.00  0.00    -0.296 N 
ATOM     19  H   GLY A   4      31.188  74.536  22.747  0.00  0.00    +0.150 HD
ATOM     20  O   ILE A   3      30.307  74.721  19.709  0.00  0.00    -0.273 OA
BRANCH  18  21
ATOM     21  CA  GLY A   4      30.298  76.356  21.957  0.00  0.00    +0.163 C 
BRANCH  21  22
ATOM     22  C   GLY A   4      28.866  76.464  22.439  0.00  0.00    +0.229 C 
ATOM     23  O   GLY A   4      28.190  75.473  22.685  0.00  0.00    -0.286 OA
ENDBRANCH  21  22
ENDBRANCH  18  21
ENDBRANCH  16  17
BRANCH  16  24
ATOM     24  CB  ILE A   3      33.141  73.491  20.082  0.00  0.00    +0.027 C 
ATOM     25  CG2 ILE A   3      33.638  74.835  20.602  0.00  0.00    +0.002 C 
BRANCH  24  26
ATOM     26  CG1 ILE A   3      34.170  72.390  20.359  0.00  0.00    +0.002 C 
ATOM     27  CD1 ILE A   3      35.236  72.335  19.298  0.00  0.00    +0.000 C 
ENDBRANCH  24  26
ENDBRANCH  16  24
ENDBRANCH  14  16
ENDBRANCH   1  12
BRANCH   1  28
ATOM     28  CB  LYS A   2      29.469  70.092  18.281  0.00  0.00    +0.029 C 
BRANCH  28  29
ATOM     29  CG  LYS A   2      29.341  68.759  17.547  0.00  0.00    +0.000 C 
BRANCH  29  30
ATOM     30  CD  LYS A   2      28.591  68.877  16.220  0.00  0.00    -0.024 C 
BRANCH  30  31
ATOM     31  CE  LYS A   2      27.090  68.994  16.411  0.00  0.00    -0.086 C 
BRANCH  31  32
ATOM     32  NZ  LYS A   2      26.282  68.975  15.150  0.00  0.00    +0.380 N 
ATOM     33  HZ1 LYS A   2      25.273  69.060  15.385  0.00  0.00    -0.089 HD
ATOM     34  HZ2 LYS A   2      26.448  68.080  14.647  0.00  0.00    -0.089 HD
ATOM     35  HZ3 LYS A   2      26.567  69.772  14.545  0.00  0.00    -0.089 HD
ENDBRANCH  31  32
ENDBRANCH  30  31
ENDBRANCH  29  30
ENDBRANCH  28  29
ENDBRANCH   1  28
TORSDOF 17
REMARK  Name = ../refined-set-2016/4wkp/4wkp_pocket.pdb
REMARK  226 active torsions:
REMARK  status: ('A' for Active; 'I' for Inactive)
REMARK    1  A    between atoms: _1  and  _3
REMARK    2  A    between atoms: _3  and  _4
REMARK    3  A    between atoms: _6  and  _8
REMARK    4  A    between atoms: _8  and  _9
REMARK    5  A    between atoms: _12  and  _14
REMARK    6  A    between atoms: _14  and  _15
REMARK    7  A    between atoms: _14  and  _17
REMARK    8  A    between atoms: _17  and  _18
REMARK    9  A    between atoms: _18  and  _19
REMARK   10  A    between atoms: _21  and  _23
REMARK   11  A    between atoms: _23  and  _24
REMARK   12  A    between atoms: _23  and  _26
REMARK   13  A    between atoms: _26  and  _27
REMARK   14  A    between atoms: _27  and  _28
REMARK   15  A    between atoms: _31  and  _33
REMARK   16  A    between atoms: _33  and  _34
REMARK   17  A    between atoms: _33  and  _36
REMARK   18  A    between atoms: _36  and  _37
REMARK   19  A    between atoms: _37  and  _38
REMARK   20  A    between atoms: _41  and  _43
REMARK   21  A    between atoms: _43  and  _44
REMARK   22  A    between atoms: _43  and  _46
REMARK   23  A    between atoms: _46  and  _47
REMARK   24  A    between atoms: _49  and  _51
REMARK   25  A    between atoms: _51  and  _52
REMARK   26  A    between atoms: _51  and  _54
REMARK   27  A    between atoms: _54  and  _55
REMARK   28  A    between atoms: _55  and  _56
REMARK   29  A    between atoms: _56  and  _57
REMARK   30  A    between atoms: _57  and  _58
REMARK   31  A    between atoms: _62  and  _64
REMARK   32  A    between atoms: _64  and  _65
REMARK   33  A    between atoms: _64  and  _67
REMARK   34  A    between atoms: _67  and  _68
REMARK   35  A    between atoms: _71  and  _73
REMARK   36  A    between atoms: _73  and  _74
REMARK   37  A    between atoms: _76  and  _78
REMARK   38  A    between atoms: _78  and  _79
REMARK   39  A    between atoms: _78  and  _81
REMARK   40  A    between atoms: _81  and  _82
REMARK   41  A    between atoms: _88  and  _90
REMARK   42  A    between atoms: _90  and  _91
REMARK   43  A    between atoms: _93  and  _95
REMARK   44  A    between atoms: _95  and  _96
REMARK   45  A    between atoms: _95  and  _98
REMARK   46  A    between atoms: _101  and  _103
REMARK   47  A    between atoms: _103  and  _104
REMARK   48  A    between atoms: _107  and  _109
REMARK   49  A    between atoms: _109  and  _110
REMARK   50  A    between atoms: _112  and  _114
REMARK   51  A    between atoms: _114  and  _115
REMARK   52  A    between atoms: _114  and  _117
REMARK   53  A    between atoms: _117  and  _118
REMARK   54  A    between atoms: _120  and  _122
REMARK   55  A    between atoms: _122  and  _123
REMARK   56  A    between atoms: _122  and  _125
REMARK   57  A    between atoms: _125  and  _126
REMARK   58  A    between atoms: _129  and  _131
REMARK   59  A    between atoms: _131  and  _132
REMARK   60  A    between atoms: _131  and  _134
REMARK   61  A    between atoms: _134  and  _135
REMARK   62  A    between atoms: _140  and  _142
REMARK   63  A    between atoms: _142  and  _143
REMARK   64  A    between atoms: _146  and  _148
REMARK   65  A    between atoms: _148  and  _149
REMARK   66  A    between atoms: _148  and  _151
REMARK   67  A    between atoms: _151  and  _152
REMARK   68  A    between atoms: _154  and  _156
REMARK   69  A    between atoms: _156  and  _157
REMARK   70  A    between atoms: _159  and  _161
REMARK   71  A    between atoms: _161  and  _162
REMARK   72  A    between atoms: _161  and  _164
REMARK   73  A    between atoms: _164  and  _165
REMARK   74  A    between atoms: _168  and  _170
REMARK   75  A    between atoms: _170  and  _171
REMARK   76  A    between atoms: _170  and  _173
REMARK   77  A    between atoms: _173  and  _174
REMARK   78  A    between atoms: _174  and  _175
REMARK   79  A    between atoms: _180  and  _182
REMARK   80  A    between atoms: _182  and  _183
REMARK   81  A    between atoms: _182  and  _185
REMARK   82  A    between atoms: _185  and  _186
REMARK   83  A    between atoms: _192  and  _194
REMARK   84  A    between atoms: _194  and  _195
REMARK   85  A    between atoms: _194  and  _197
REMARK   86  A    between atoms: _200  and  _202
REMARK   87  A    between atoms: _202  and  _203
REMARK   88  A    between atoms: _202  and  _205
REMARK   89  A    between atoms: _205  and  _206
REMARK   90  A    between atoms: _211  and  _213
REMARK   91  A    between atoms: _213  and  _214
REMARK   92  A    between atoms: _213  and  _216
REMARK   93  A    between atoms: _216  and  _217
REMARK   94  A    between atoms: _219  and  _221
REMARK   95  A    between atoms: _221  and  _222
REMARK   96  A    between atoms: _221  and  _224
REMARK   97  A    between atoms: _224  and  _225
REMARK   98  A    between atoms: _225  and  _226
REMARK   99  A    between atoms: _226  and  _227
REMARK  100  A    between atoms: _227  and  _228
REMARK  101  A    between atoms: _232  and  _234
REMARK  102  A    between atoms: _234  and  _235
REMARK  103  A    between atoms: _234  and  _237
REMARK  104  A    between atoms: _237  and  _238
REMARK  105  A    between atoms: _241  and  _243
REMARK  106  A    between atoms: _243  and  _244
REMARK  107  A    between atoms: _247  and  _249
REMARK  108  A    between atoms: _249  and  _250
REMARK  109  A    between atoms: _249  and  _252
REMARK  110  A    between atoms: _255  and  _257
REMARK  111  A    between atoms: _257  and  _258
REMARK  112  A    between atoms: _257  and  _260
REMARK  113  A    between atoms: _260  and  _261
REMARK  114  A    between atoms: _261  and  _262
REMARK  115  A    between atoms: _265  and  _267
REMARK  116  A    between atoms: _267  and  _268
REMARK  117  A    between atoms: _267  and  _270
REMARK  118  A    between atoms: _270  and  _271
REMARK  119  A    between atoms: _271  and  _272
REMARK  120  A    between atoms: _274  and  _276
REMARK  121  A    between atoms: _276  and  _277
REMARK  122  A    between atoms: _276  and  _279
REMARK  123  A    between atoms: _279  and  _280
REMARK  124  A    between atoms: _280  and  _281
REMARK  125  A    between atoms: _284  and  _286
REMARK  126  A    between atoms: _286  and  _287
REMARK  127  A    between atoms: _289  and  _291
REMARK  128  A    between atoms: _291  and  _292
REMARK  129  A    between atoms: _291  and  _294
REMARK  130  A    between atoms: _294  and  _295
REMARK  131  A    between atoms: _295  and  _296
REMARK  132  A    between atoms: _296  and  _297
REMARK  133  A    between atoms: _306  and  _308
REMARK  134  A    between atoms: _308  and  _309
REMARK  135  A    between atoms: _308  and  _311
REMARK  136  A    between atoms: _311  and  _312
REMARK  137  A    between atoms: _314  and  _316
REMARK  138  A    between atoms: _316  and  _317
REMARK  139  A    between atoms: _316  and  _319
REMARK  140  A    between atoms: _319  and  _320
REMARK  141  A    between atoms: _323  and  _325
REMARK  142  A    between atoms: _325  and  _326
REMARK  143  A    between atoms: _325  and  _328
REMARK  144  A    between atoms: _328  and  _329
REMARK  145  A    between atoms: _331  and  _333
REMARK  146  A    between atoms: _333  and  _334
REMARK  147  A    between atoms: _333  and  _336
REMARK  148  A    between atoms: _336  and  _337
REMARK  149  A    between atoms: _340  and  _342
REMARK  150  A    between atoms: _342  and  _343
REMARK  151  A    between atoms: _342  and  _345
REMARK  152  A    between atoms: _345  and  _346
REMARK  153  A    between atoms: _351  and  _353
REMARK  154  A    between atoms: _353  and  _354
REMARK  155  A    between atoms: _357  and  _359
REMARK  156  A    between atoms: _359  and  _360
REMARK  157  A    between atoms: _359  and  _362
REMARK  158  A    between atoms: _362  and  _363
REMARK  159  A    between atoms: _366  and  _368
REMARK  160  A    between atoms: _368  and  _369
REMARK  161  A    between atoms: _372  and  _374
REMARK  162  A    between atoms: _374  and  _375
REMARK  163  A    between atoms: _377  and  _379
REMARK  164  A    between atoms: _379  and  _380
REMARK  165  A    between atoms: _379  and  _382
REMARK  166  A    between atoms: _382  and  _383
REMARK  167  A    between atoms: _385  and  _387
REMARK  168  A    between atoms: _387  and  _388
REMARK  169  A    between atoms: _387  and  _390
REMARK  170  A    between atoms: _390  and  _391
REMARK  171  A    between atoms: _397  and  _399
REMARK  172  A    between atoms: _399  and  _400
REMARK  173  A    between atoms: _399  and  _402
REMARK  174  A    between atoms: _402  and  _403
REMARK  175  A    between atoms: _406  and  _408
REMARK  176  A    between atoms: _408  and  _409
REMARK  177  A    between atoms: _408  and  _411
REMARK  178  A    between atoms: _411  and  _412
REMARK  179  A    between atoms: _415  and  _417
REMARK  180  A    between atoms: _417  and  _418
REMARK  181  A    between atoms: _417  and  _420
REMARK  182  A    between atoms: _420  and  _421
REMARK  183  A    between atoms: _423  and  _425
REMARK  184  A    between atoms: _425  and  _426
REMARK  185  A    between atoms: _425  and  _428
REMARK  186  A    between atoms: _428  and  _429
REMARK  187  A    between atoms: _432  and  _434
REMARK  188  A    between atoms: _434  and  _435
REMARK  189  A    between atoms: _434  and  _437
REMARK  190  A    between atoms: _437  and  _438
REMARK  191  A    between atoms: _441  and  _443
REMARK  192  A    between atoms: _443  and  _444
REMARK  193  A    between atoms: _443  and  _446
REMARK  194  A    between atoms: _446  and  _447
REMARK  195  A    between atoms: _449  and  _451
REMARK  196  A    between atoms: _451  and  _452
REMARK  197  A    between atoms: _455  and  _457
REMARK  198  A    between atoms: _457  and  _458
REMARK  199  A    between atoms: _457  and  _460
REMARK  200  A    between atoms: _460  and  _461
REMARK  201  A    between atoms: _467  and  _469
REMARK  202  A    between atoms: _469  and  _470
REMARK  203  A    between atoms: _469  and  _472
REMARK  204  A    between atoms: _472  and  _473
REMARK  205  A    between atoms: _476  and  _478
REMARK  206  A    between atoms: _478  and  _479
REMARK  207  A    between atoms: _478  and  _481
REMARK  208  A    between atoms: _481  and  _482
REMARK  209  A    between atoms: _487  and  _489
REMARK  210  A    between atoms: _489  and  _490
REMARK  211  A    between atoms: _489  and  _492
REMARK  212  A    between atoms: _492  and  _493
REMARK  213  A    between atoms: _499  and  _501
REMARK  214  A    between atoms: _501  and  _502
REMARK  215  A    between atoms: _501  and  _504
REMARK  216  A    between atoms: _504  and  _505
REMARK  217  A    between atoms: _509  and  _510
REMARK  218  A    between atoms: _515  and  _517
REMARK  219  A    between atoms: _517  and  _518
REMARK  220  A    between atoms: _517  and  _520
REMARK  221  A    between atoms: _520  and  _521
REMARK  222  A    between atoms: _521  and  _522
REMARK  223  A    between atoms: _525  and  _527
REMARK  224  A    between atoms: _527  and  _528
REMARK  225  A    between atoms: _527  and  _530
REMARK  226  A    between atoms: _530  and  _531
REMARK                            x       y       z     vdW  Elec       q    Type
REMARK                         _______ _______ _______ _____ _____    ______ ____
ROOT
ATOM      1  CB  PHE A   1      28.070  69.389  31.977  0.00  0.00    +0.051 C 
ENDROOT
BRANCH   1   2
ATOM      2  CG  PHE A   1      28.954  69.734  30.817  0.00  0.00    -0.020 A 
ATOM      3  CD2 PHE A   1      30.328  69.832  30.989  0.00  0.00    -0.004 A 
ATOM      4  CE2 PHE A   1      31.162  70.103  29.921  0.00  0.00    -0.000 A 
ATOM      5  CZ  PHE A   1      30.633  70.232  28.647  0.00  0.00    -0.000 A 
ATOM      6  CE1 PHE A   1      29.277  70.097  28.455  0.00  0.00    -0.000 A 
ATOM      7  CD1 PHE A   1      28.441  69.836  29.530  0.00  0.00    -0.004 A 
ENDBRANCH   1   2
BRANCH   1   8
ATOM      8  CA  PHE A   1      28.131  67.908  32.343  0.00  0.00    +0.137 C 
BRANCH   8   9
ATOM      9  N   PHE A   1      27.164  67.573  33.360  0.00  0.00    -0.239 NA
ATOM     10  H   PHE A   1      27.042  68.208  34.174  0.00  0.00    +0.142 HD
ENDBRANCH   8   9
BRANCH   8  11
ATOM     11  C   PHE A   1      29.532  67.564  32.818  0.00  0.00    +0.224 C 
ATOM     12  O   PHE A   1      29.898  67.873  33.959  0.00  0.00    -0.287 OA
ENDBRANCH   8  11
ENDBRANCH   1   8
TORSDOF 4
REMARK  Name = ../refined-set-2016/4wkp/4wkp_pocket.pdb
REMARK  226 active torsions:
REMARK  status: ('A' for Active; 'I' for Inactive)
REMARK    1  A    between atoms: _1  and  _3
REMARK    2  A    between atoms: _3  and  _4
REMARK    3  A    between atoms: _6  and  _8
REMARK    4  A    between atoms: _8  and  _9
REMARK    5  A    between atoms: _12  and  _14
REMARK    6  A    between atoms: _14  and  _15
REMARK    7  A    between atoms: _14  and  _17
REMARK    8  A    between atoms: _17  and  _18
REMARK    9  A    between atoms: _18  and  _19
REMARK   10  A    between atoms: _21  and  _23
REMARK   11  A    between atoms: _23  and  _24
REMARK   12  A    between atoms: _23  and  _26
REMARK   13  A    between atoms: _26  and  _27
REMARK   14  A    between atoms: _27  and  _28
REMARK   15  A    between atoms: _31  and  _33
REMARK   16  A    between atoms: _33  and  _34
REMARK   17  A    between atoms: _33  and  _36
REMARK   18  A    between atoms: _36  and  _37
REMARK   19  A    between atoms: _37  and  _38
REMARK   20  A    between atoms: _41  and  _43
REMARK   21  A    between atoms: _43  and  _44
REMARK   22  A    between atoms: _43  and  _46
REMARK   23  A    between atoms: _46  and  _47
REMARK   24  A    between atoms: _49  and  _51
REMARK   25  A    between atoms: _51  and  _52
REMARK   26  A    between atoms: _51  and  _54
REMARK   27  A    between atoms: _54  and  _55
REMARK   28  A    between atoms: _55  and  _56
REMARK   29  A    between atoms: _56  and  _57
REMARK   30  A    between atoms: _57  and  _58
REMARK   31  A    between atoms: _62  and  _64
REMARK   32  A    between atoms: _64  and  _65
REMARK   33  A    between atoms: _64  and  _67
REMARK   34  A    between atoms: _67  and  _68
REMARK   35  A    between atoms: _71  and  _73
REMARK   36  A    between atoms: _73  and  _74
REMARK   37  A    between atoms: _76  and  _78
REMARK   38  A    between atoms: _78  and  _79
REMARK   39  A    between atoms: _78  and  _81
REMARK   40  A    between atoms: _81  and  _82
REMARK   41  A    between atoms: _88  and  _90
REMARK   42  A    between atoms: _90  and  _91
REMARK   43  A    between atoms: _93  and  _95
REMARK   44  A    between atoms: _95  and  _96
REMARK   45  A    between atoms: _95  and  _98
REMARK   46  A    between atoms: _101  and  _103
REMARK   47  A    between atoms: _103  and  _104
REMARK   48  A    between atoms: _107  and  _109
REMARK   49  A    between atoms: _109  and  _110
REMARK   50  A    between atoms: _112  and  _114
REMARK   51  A    between atoms: _114  and  _115
REMARK   52  A    between atoms: _114  and  _117
REMARK   53  A    between atoms: _117  and  _118
REMARK   54  A    between atoms: _120  and  _122
REMARK   55  A    between atoms: _122  and  _123
REMARK   56  A    between atoms: _122  and  _125
REMARK   57  A    between atoms: _125  and  _126
REMARK   58  A    between atoms: _129  and  _131
REMARK   59  A    between atoms: _131  and  _132
REMARK   60  A    between atoms: _131  and  _134
REMARK   61  A    between atoms: _134  and  _135
REMARK   62  A    between atoms: _140  and  _142
REMARK   63  A    between atoms: _142  and  _143
REMARK   64  A    between atoms: _146  and  _148
REMARK   65  A    between atoms: _148  and  _149
REMARK   66  A    between atoms: _148  and  _151
REMARK   67  A    between atoms: _151  and  _152
REMARK   68  A    between atoms: _154  and  _156
REMARK   69  A    between atoms: _156  and  _157
REMARK   70  A    between atoms: _159  and  _161
REMARK   71  A    between atoms: _161  and  _162
REMARK   72  A    between atoms: _161  and  _164
REMARK   73  A    between atoms: _164  and  _165
REMARK   74  A    between atoms: _168  and  _170
REMARK   75  A    between atoms: _170  and  _171
REMARK   76  A    between atoms: _170  and  _173
REMARK   77  A    between atoms: _173  and  _174
REMARK   78  A    between atoms: _174  and  _175
REMARK   79  A    between atoms: _180  and  _182
REMARK   80  A    between atoms: _182  and  _183
REMARK   81  A    between atoms: _182  and  _185
REMARK   82  A    between atoms: _185  and  _186
REMARK   83  A    between atoms: _192  and  _194
REMARK   84  A    between atoms: _194  and  _195
REMARK   85  A    between atoms: _194  and  _197
REMARK   86  A    between atoms: _200  and  _202
REMARK   87  A    between atoms: _202  and  _203
REMARK   88  A    between atoms: _202  and  _205
REMARK   89  A    between atoms: _205  and  _206
REMARK   90  A    between atoms: _211  and  _213
REMARK   91  A    between atoms: _213  and  _214
REMARK   92  A    between atoms: _213  and  _216
REMARK   93  A    between atoms: _216  and  _217
REMARK   94  A    between atoms: _219  and  _221
REMARK   95  A    between atoms: _221  and  _222
REMARK   96  A    between atoms: _221  and  _224
REMARK   97  A    between atoms: _224  and  _225
REMARK   98  A    between atoms: _225  and  _226
REMARK   99  A    between atoms: _226  and  _227
REMARK  100  A    between atoms: _227  and  _228
REMARK  101  A    between atoms: _232  and  _234
REMARK  102  A    between atoms: _234  and  _235
REMARK  103  A    between atoms: _234  and  _237
REMARK  104  A    between atoms: _237  and  _238
REMARK  105  A    between atoms: _241  and  _243
REMARK  106  A    between atoms: _243  and  _244
REMARK  107  A    between atoms: _247  and  _249
REMARK  108  A    between atoms: _249  and  _250
REMARK  109  A    between atoms: _249  and  _252
REMARK  110  A    between atoms: _255  and  _257
REMARK  111  A    between atoms: _257  and  _258
REMARK  112  A    between atoms: _257  and  _260
REMARK  113  A    between atoms: _260  and  _261
REMARK  114  A    between atoms: _261  and  _262
REMARK  115  A    between atoms: _265  and  _267
REMARK  116  A    between atoms: _267  and  _268
REMARK  117  A    between atoms: _267  and  _270
REMARK  118  A    between atoms: _270  and  _271
REMARK  119  A    between atoms: _271  and  _272
REMARK  120  A    between atoms: _274  and  _276
REMARK  121  A    between atoms: _276  and  _277
REMARK  122  A    between atoms: _276  and  _279
REMARK  123  A    between atoms: _279  and  _280
REMARK  124  A    between atoms: _280  and  _281
REMARK  125  A    between atoms: _284  and  _286
REMARK  126  A    between atoms: _286  and  _287
REMARK  127  A    between atoms: _289  and  _291
REMARK  128  A    between atoms: _291  and  _292
REMARK  129  A    between atoms: _291  and  _294
REMARK  130  A    between atoms: _294  and  _295
REMARK  131  A    between atoms: _295  and  _296
REMARK  132  A    between atoms: _296  and  _297
REMARK  133  A    between atoms: _306  and  _308
REMARK  134  A    between atoms: _308  and  _309
REMARK  135  A    between atoms: _308  and  _311
REMARK  136  A    between atoms: _311  and  _312
REMARK  137  A    between atoms: _314  and  _316
REMARK  138  A    between atoms: _316  and  _317
REMARK  139  A    between atoms: _316  and  _319
REMARK  140  A    between atoms: _319  and  _320
REMARK  141  A    between atoms: _323  and  _325
REMARK  142  A    between atoms: _325  and  _326
REMARK  143  A    between atoms: _325  and  _328
REMARK  144  A    between atoms: _328  and  _329
REMARK  145  A    between atoms: _331  and  _333
REMARK  146  A    between atoms: _333  and  _334
REMARK  147  A    between atoms: _333  and  _336
REMARK  148  A    between atoms: _336  and  _337
REMARK  149  A    between atoms: _340  and  _342
REMARK  150  A    between atoms: _342  and  _343
REMARK  151  A    between atoms: _342  and  _345
REMARK  152  A    between atoms: _345  and  _346
REMARK  153  A    between atoms: _351  and  _353
REMARK  154  A    between atoms: _353  and  _354
REMARK  155  A    between atoms: _357  and  _359
REMARK  156  A    between atoms: _359  and  _360
REMARK  157  A    between atoms: _359  and  _362
REMARK  158  A    between atoms: _362  and  _363
REMARK  159  A    between atoms: _366  and  _368
REMARK  160  A    between atoms: _368  and  _369
REMARK  161  A    between atoms: _372  and  _374
REMARK  162  A    between atoms: _374  and  _375
REMARK  163  A    between atoms: _377  and  _379
REMARK  164  A    between atoms: _379  and  _380
REMARK  165  A    between atoms: _379  and  _382
REMARK  166  A    between atoms: _382  and  _383
REMARK  167  A    between atoms: _385  and  _387
REMARK  168  A    between atoms: _387  and  _388
REMARK  169  A    between atoms: _387  and  _390
REMARK  170  A    between atoms: _390  and  _391
REMARK  171  A    between atoms: _397  and  _399
REMARK  172  A    between atoms: _399  and  _400
REMARK  173  A    between atoms: _399  and  _402
REMARK  174  A    between atoms: _402  and  _403
REMARK  175  A    between atoms: _406  and  _408
REMARK  176  A    between atoms: _408  and  _409
REMARK  177  A    between atoms: _408  and  _411
REMARK  178  A    between atoms: _411  and  _412
REMARK  179  A    between atoms: _415  and  _417
REMARK  180  A    between atoms: _417  and  _418
REMARK  181  A    between atoms: _417  and  _420
REMARK  182  A    between atoms: _420  and  _421
REMARK  183  A    between atoms: _423  and  _425
REMARK  184  A    between atoms: _425  and  _426
REMARK  185  A    between atoms: _425  and  _428
REMARK  186  A    between atoms: _428  and  _429
REMARK  187  A    between atoms: _432  and  _434
REMARK  188  A    between atoms: _434  and  _435
REMARK  189  A    between atoms: _434  and  _437
REMARK  190  A    between atoms: _437  and  _438
REMARK  191  A    between atoms: _441  and  _443
REMARK  192  A    between atoms: _443  and  _444
REMARK  193  A    between atoms: _443  and  _446
REMARK  194  A    between atoms: _446  and  _447
REMARK  195  A    between atoms: _449  and  _451
REMARK  196  A    between atoms: _451  and  _452
REMARK  197  A    between atoms: _455  and  _457
REMARK  198  A    between atoms: _457  and  _458
REMARK  199  A    between atoms: _457  and  _460
REMARK  200  A    between atoms: _460  and  _461
REMARK  201  A    between atoms: _467  and  _469
REMARK  202  A    between atoms: _469  and  _470
REMARK  203  A    between atoms: _469  and  _472
REMARK  204  A    between atoms: _472  and  _473
REMARK  205  A    between atoms: _476  and  _478
REMARK  206  A    between atoms: _478  and  _479
REMARK  207  A    between atoms: _478  and  _481
REMARK  208  A    between atoms: _481  and  _482
REMARK  209  A    between atoms: _487  and  _489
REMARK  210  A    between atoms: _489  and  _490
REMARK  211  A    between atoms: _489  and  _492
REMARK  212  A    between atoms: _492  and  _493
REMARK  213  A    between atoms: _499  and  _501
REMARK  214  A    between atoms: _501  and  _502
REMARK  215  A    between atoms: _501  and  _504
REMARK  216  A    between atoms: _504  and  _505
REMARK  217  A    between atoms: _509  and  _510
REMARK  218  A    between atoms: _515  and  _517
REMARK  219  A    between atoms: _517  and  _518
REMARK  220  A    between atoms: _517  and  _520
REMARK  221  A    between atoms: _520  and  _521
REMARK  222  A    between atoms: _521  and  _522
REMARK  223  A    between atoms: _525  and  _527
REMARK  224  A    between atoms: _527  and  _528
REMARK  225  A    between atoms: _527  and  _530
REMARK  226  A    between atoms: _530  and  _531
REMARK                            x       y       z     vdW  Elec       q    Type
REMARK                         _______ _______ _______ _____ _____    ______ ____
ROOT
ATOM      1  C   ALA A   3      39.755  74.591  31.408  0.00  0.00    +0.241 C 
ATOM      2  O   ALA A   3      40.741  73.960  31.840  0.00  0.00    -0.273 OA
ATOM      3  N   GLY A   4      39.789  75.882  31.102  0.00  0.00    -0.295 N 
ATOM      4  H   GLY A   4      38.963  76.307  30.635  0.00  0.00    +0.150 HD
ENDROOT
BRANCH   1   5
ATOM      5  CA  ALA A   3      38.418  73.920  31.205  0.00  0.00    +0.149 C 
ATOM      6  CB  ALA A   3      37.461  74.326  32.318  0.00  0.00    +0.031 C 
BRANCH   5   8
ATOM      7  C   VAL A   2      37.598  71.747  30.486  0.00  0.00    +0.241 C 
ATOM      8  N   ALA A   3      38.519  72.463  31.124  0.00  0.00    -0.297 N 
ATOM      9  H   ALA A   3      39.323  71.980  31.572  0.00  0.00    +0.150 HD
ATOM     10  O   VAL A   2      36.647  72.249  29.876  0.00  0.00    -0.273 OA
BRANCH   7  11
ATOM     11  CA  VAL A   2      37.778  70.233  30.525  0.00  0.00    +0.148 C 
BRANCH  11  14
ATOM     12  C   GLY A   1      35.879  68.788  30.980  0.00  0.00    +0.240 C 
ATOM     13  O   GLY A   1      36.194  68.665  32.183  0.00  0.00    -0.274 OA
ATOM     14  N   VAL A   2      36.552  69.538  30.127  0.00  0.00    -0.297 N 
ATOM     15  H   VAL A   2      36.204  69.637  29.152  0.00  0.00    +0.150 HD
BRANCH  12  16
ATOM     16  CA  GLY A   1      34.700  68.049  30.397  0.00  0.00    +0.169 C 
BRANCH  16  17
ATOM     17  N   GLY A   1      33.752  67.619  31.417  0.00  0.00    -0.236 NA
ATOM     18  H   GLY A   1      33.973  67.775  32.421  0.00  0.00    +0.142 HD
ENDBRANCH  16  17
ENDBRANCH  12  16
ENDBRANCH  11  14
BRANCH  11  19
ATOM     19  CB  VAL A   2      39.000  69.800  29.687  0.00  0.00    +0.027 C 
ATOM     20  CG2 VAL A   2      39.128  68.293  29.684  0.00  0.00    +0.002 C 
ATOM     21  CG1 VAL A   2      38.917  70.309  28.250  0.00  0.00    +0.002 C 
ENDBRANCH  11  19
ENDBRANCH   7  11
ENDBRANCH   5   8
ENDBRANCH   1   5
BRANCH   3  22
ATOM     22  CA  GLY A   4      40.940  76.727  31.395  0.00  0.00    +0.176 C 
BRANCH  22  23
ATOM     23  C   GLY A   4      40.889  77.290  32.799  0.00  0.00    +0.243 C 
ATOM     24  N   SER A   5      42.003  77.220  33.519  0.00  0.00    -0.295 N 
ATOM     25  H   SER A   5      42.841  76.754  33.116  0.00  0.00    +0.150 HD
ATOM     26  O   GLY A   4      39.848  77.766  33.249  0.00  0.00    -0.273 OA
BRANCH  24  27
ATOM     27  CA  SER A   5      42.078  77.786  34.872  0.00  0.00    +0.178 C 
BRANCH  27  28
ATOM     28  C   SER A   5      42.339  79.282  34.878  0.00  0.00    +0.243 C 
ATOM     29  N   LEU A   6      41.635  79.989  35.762  0.00  0.00    -0.298 N 
ATOM     30  H   LEU A   6      40.911  79.500  36.326  0.00  0.00    +0.150 HD
ATOM     31  O   SER A   5      43.179  79.781  34.125  0.00  0.00    -0.273 OA
BRANCH  29  32
ATOM     32  CA  LEU A   6      41.835  81.417  35.974  0.00  0.00    +0.137 C 
BRANCH  32  33
ATOM     33  C   LEU A   6      42.425  81.737  37.349  0.00  0.00    +0.227 C 
ATOM     34  O   LEU A   6      42.599  82.910  37.680  0.00  0.00    -0.286 OA
ENDBRANCH  32  33
BRANCH  32  35
ATOM     35  CB  LEU A   6      40.507  82.167  35.834  0.00  0.00    +0.028 C 
BRANCH  35  36
ATOM     36  CG  LEU A   6      39.746  81.983  34.520  0.00  0.00    +0.002 C 
ATOM     37  CD2 LEU A   6      38.378  82.644  34.627  0.00  0.00    +0.000 C 
ATOM     38  CD1 LEU A   6      40.567  82.559  33.366  0.00  0.00    +0.000 C 
ENDBRANCH  35  36
ENDBRANCH  32  35
ENDBRANCH  29  32
ENDBRANCH  27  28
BRANCH  27  39
ATOM     39  CB  SER A   5      43.179  77.115  35.682  0.00  0.00    +0.166 C 
BRANCH  39  40
ATOM     40  OG  SER A   5      43.346  77.801  36.919  0.00  0.00    -0.380 OA
ATOM     41  H   SER A   5      44.062  77.363  37.444  0.00  0.00    +0.211 HD
ENDBRANCH  39  40
ENDBRANCH  27  39
ENDBRANCH  24  27
ENDBRANCH  22  23
ENDBRANCH   3  22
TORSDOF 17
REMARK  Name = ../refined-set-2016/4wkp/4wkp_pocket.pdb
REMARK  226 active torsions:
REMARK  status: ('A' for Active; 'I' for Inactive)
REMARK    1  A    between atoms: _1  and  _3
REMARK    2  A    between atoms: _3  and  _4
REMARK    3  A    between atoms: _6  and  _8
REMARK    4  A    between atoms: _8  and  _9
REMARK    5  A    between atoms: _12  and  _14
REMARK    6  A    between atoms: _14  and  _15
REMARK    7  A    between atoms: _14  and  _17
REMARK    8  A    between atoms: _17  and  _18
REMARK    9  A    between atoms: _18  and  _19
REMARK   10  A    between atoms: _21  and  _23
REMARK   11  A    between atoms: _23  and  _24
REMARK   12  A    between atoms: _23  and  _26
REMARK   13  A    between atoms: _26  and  _27
REMARK   14  A    between atoms: _27  and  _28
REMARK   15  A    between atoms: _31  and  _33
REMARK   16  A    between atoms: _33  and  _34
REMARK   17  A    between atoms: _33  and  _36
REMARK   18  A    between atoms: _36  and  _37
REMARK   19  A    between atoms: _37  and  _38
REMARK   20  A    between atoms: _41  and  _43
REMARK   21  A    between atoms: _43  and  _44
REMARK   22  A    between atoms: _43  and  _46
REMARK   23  A    between atoms: _46  and  _47
REMARK   24  A    between atoms: _49  and  _51
REMARK   25  A    between atoms: _51  and  _52
REMARK   26  A    between atoms: _51  and  _54
REMARK   27  A    between atoms: _54  and  _55
REMARK   28  A    between atoms: _55  and  _56
REMARK   29  A    between atoms: _56  and  _57
REMARK   30  A    between atoms: _57  and  _58
REMARK   31  A    between atoms: _62  and  _64
REMARK   32  A    between atoms: _64  and  _65
REMARK   33  A    between atoms: _64  and  _67
REMARK   34  A    between atoms: _67  and  _68
REMARK   35  A    between atoms: _71  and  _73
REMARK   36  A    between atoms: _73  and  _74
REMARK   37  A    between atoms: _76  and  _78
REMARK   38  A    between atoms: _78  and  _79
REMARK   39  A    between atoms: _78  and  _81
REMARK   40  A    between atoms: _81  and  _82
REMARK   41  A    between atoms: _88  and  _90
REMARK   42  A    between atoms: _90  and  _91
REMARK   43  A    between atoms: _93  and  _95
REMARK   44  A    between atoms: _95  and  _96
REMARK   45  A    between atoms: _95  and  _98
REMARK   46  A    between atoms: _101  and  _103
REMARK   47  A    between atoms: _103  and  _104
REMARK   48  A    between atoms: _107  and  _109
REMARK   49  A    between atoms: _109  and  _110
REMARK   50  A    between atoms: _112  and  _114
REMARK   51  A    between atoms: _114  and  _115
REMARK   52  A    between atoms: _114  and  _117
REMARK   53  A    between atoms: _117  and  _118
REMARK   54  A    between atoms: _120  and  _122
REMARK   55  A    between atoms: _122  and  _123
REMARK   56  A    between atoms: _122  and  _125
REMARK   57  A    between atoms: _125  and  _126
REMARK   58  A    between atoms: _129  and  _131
REMARK   59  A    between atoms: _131  and  _132
REMARK   60  A    between atoms: _131  and  _134
REMARK   61  A    between atoms: _134  and  _135
REMARK   62  A    between atoms: _140  and  _142
REMARK   63  A    between atoms: _142  and  _143
REMARK   64  A    between atoms: _146  and  _148
REMARK   65  A    between atoms: _148  and  _149
REMARK   66  A    between atoms: _148  and  _151
REMARK   67  A    between atoms: _151  and  _152
REMARK   68  A    between atoms: _154  and  _156
REMARK   69  A    between atoms: _156  and  _157
REMARK   70  A    between atoms: _159  and  _161
REMARK   71  A    between atoms: _161  and  _162
REMARK   72  A    between atoms: _161  and  _164
REMARK   73  A    between atoms: _164  and  _165
REMARK   74  A    between atoms: _168  and  _170
REMARK   75  A    between atoms: _170  and  _171
REMARK   76  A    between atoms: _170  and  _173
REMARK   77  A    between atoms: _173  and  _174
REMARK   78  A    between atoms: _174  and  _175
REMARK   79  A    between atoms: _180  and  _182
REMARK   80  A    between atoms: _182  and  _183
REMARK   81  A    between atoms: _182  and  _185
REMARK   82  A    between atoms: _185  and  _186
REMARK   83  A    between atoms: _192  and  _194
REMARK   84  A    between atoms: _194  and  _195
REMARK   85  A    between atoms: _194  and  _197
REMARK   86  A    between atoms: _200  and  _202
REMARK   87  A    between atoms: _202  and  _203
REMARK   88  A    between atoms: _202  and  _205
REMARK   89  A    between atoms: _205  and  _206
REMARK   90  A    between atoms: _211  and  _213
REMARK   91  A    between atoms: _213  and  _214
REMARK   92  A    between atoms: _213  and  _216
REMARK   93  A    between atoms: _216  and  _217
REMARK   94  A    between atoms: _219  and  _221
REMARK   95  A    between atoms: _221  and  _222
REMARK   96  A    between atoms: _221  and  _224
REMARK   97  A    between atoms: _224  and  _225
REMARK   98  A    between atoms: _225  and  _226
REMARK   99  A    between atoms: _226  and  _227
REMARK  100  A    between atoms: _227  and  _228
REMARK  101  A    between atoms: _232  and  _234
REMARK  102  A    between atoms: _234  and  _235
REMARK  103  A    between atoms: _234  and  _237
REMARK  104  A    between atoms: _237  and  _238
REMARK  105  A    between atoms: _241  and  _243
REMARK  106  A    between atoms: _243  and  _244
REMARK  107  A    between atoms: _247  and  _249
REMARK  108  A    between atoms: _249  and  _250
REMARK  109  A    between atoms: _249  and  _252
REMARK  110  A    between atoms: _255  and  _257
REMARK  111  A    between atoms: _257  and  _258
REMARK  112  A    between atoms: _257  and  _260
REMARK  113  A    between atoms: _260  and  _261
REMARK  114  A    between atoms: _261  and  _262
REMARK  115  A    between atoms: _265  and  _267
REMARK  116  A    between atoms: _267  and  _268
REMARK  117  A    between atoms: _267  and  _270
REMARK  118  A    between atoms: _270  and  _271
REMARK  119  A    between atoms: _271  and  _272
REMARK  120  A    between atoms: _274  and  _276
REMARK  121  A    between atoms: _276  and  _277
REMARK  122  A    between atoms: _276  and  _279
REMARK  123  A    between atoms: _279  and  _280
REMARK  124  A    between atoms: _280  and  _281
REMARK  125  A    between atoms: _284  and  _286
REMARK  126  A    between atoms: _286  and  _287
REMARK  127  A    between atoms: _289  and  _291
REMARK  128  A    between atoms: _291  and  _292
REMARK  129  A    between atoms: _291  and  _294
REMARK  130  A    between atoms: _294  and  _295
REMARK  131  A    between atoms: _295  and  _296
REMARK  132  A    between atoms: _296  and  _297
REMARK  133  A    between atoms: _306  and  _308
REMARK  134  A    between atoms: _308  and  _309
REMARK  135  A    between atoms: _308  and  _311
REMARK  136  A    between atoms: _311  and  _312
REMARK  137  A    between atoms: _314  and  _316
REMARK  138  A    between atoms: _316  and  _317
REMARK  139  A    between atoms: _316  and  _319
REMARK  140  A    between atoms: _319  and  _320
REMARK  141  A    between atoms: _323  and  _325
REMARK  142  A    between atoms: _325  and  _326
REMARK  143  A    between atoms: _325  and  _328
REMARK  144  A    between atoms: _328  and  _329
REMARK  145  A    between atoms: _331  and  _333
REMARK  146  A    between atoms: _333  and  _334
REMARK  147  A    between atoms: _333  and  _336
REMARK  148  A    between atoms: _336  and  _337
REMARK  149  A    between atoms: _340  and  _342
REMARK  150  A    between atoms: _342  and  _343
REMARK  151  A    between atoms: _342  and  _345
REMARK  152  A    between atoms: _345  and  _346
REMARK  153  A    between atoms: _351  and  _353
REMARK  154  A    between atoms: _353  and  _354
REMARK  155  A    between atoms: _357  and  _359
REMARK  156  A    between atoms: _359  and  _360
REMARK  157  A    between atoms: _359  and  _362
REMARK  158  A    between atoms: _362  and  _363
REMARK  159  A    between atoms: _366  and  _368
REMARK  160  A    between atoms: _368  and  _369
REMARK  161  A    between atoms: _372  and  _374
REMARK  162  A    between atoms: _374  and  _375
REMARK  163  A    between atoms: _377  and  _379
REMARK  164  A    between atoms: _379  and  _380
REMARK  165  A    between atoms: _379  and  _382
REMARK  166  A    between atoms: _382  and  _383
REMARK  167  A    between atoms: _385  and  _387
REMARK  168  A    between atoms: _387  and  _388
REMARK  169  A    between atoms: _387  and  _390
REMARK  170  A    between atoms: _390  and  _391
REMARK  171  A    between atoms: _397  and  _399
REMARK  172  A    between atoms: _399  and  _400
REMARK  173  A    between atoms: _399  and  _402
REMARK  174  A    between atoms: _402  and  _403
REMARK  175  A    between atoms: _406  and  _408
REMARK  176  A    between atoms: _408  and  _409
REMARK  177  A    between atoms: _408  and  _411
REMARK  178  A    between atoms: _411  and  _412
REMARK  179  A    between atoms: _415  and  _417
REMARK  180  A    between atoms: _417  and  _418
REMARK  181  A    between atoms: _417  and  _420
REMARK  182  A    between atoms: _420  and  _421
REMARK  183  A    between atoms: _423  and  _425
REMARK  184  A    between atoms: _425  and  _426
REMARK  185  A    between atoms: _425  and  _428
REMARK  186  A    between atoms: _428  and  _429
REMARK  187  A    between atoms: _432  and  _434
REMARK  188  A    between atoms: _434  and  _435
REMARK  189  A    between atoms: _434  and  _437
REMARK  190  A    between atoms: _437  and  _438
REMARK  191  A    between atoms: _441  and  _443
REMARK  192  A    between atoms: _443  and  _444
REMARK  193  A    between atoms: _443  and  _446
REMARK  194  A    between atoms: _446  and  _447
REMARK  195  A    between atoms: _449  and  _451
REMARK  196  A    between atoms: _451  and  _452
REMARK  197  A    between atoms: _455  and  _457
REMARK  198  A    between atoms: _457  and  _458
REMARK  199  A    between atoms: _457  and  _460
REMARK  200  A    between atoms: _460  and  _461
REMARK  201  A    between atoms: _467  and  _469
REMARK  202  A    between atoms: _469  and  _470
REMARK  203  A    between atoms: _469  and  _472
REMARK  204  A    between atoms: _472  and  _473
REMARK  205  A    between atoms: _476  and  _478
REMARK  206  A    between atoms: _478  and  _479
REMARK  207  A    between atoms: _478  and  _481
REMARK  208  A    between atoms: _481  and  _482
REMARK  209  A    between atoms: _487  and  _489
REMARK  210  A    between atoms: _489  and  _490
REMARK  211  A    between atoms: _489  and  _492
REMARK  212  A    between atoms: _492  and  _493
REMARK  213  A    between atoms: _499  and  _501
REMARK  214  A    between atoms: _501  and  _502
REMARK  215  A    between atoms: _501  and  _504
REMARK  216  A    between atoms: _504  and  _505
REMARK  217  A    between atoms: _509  and  _510
REMARK  218  A    between atoms: _515  and  _517
REMARK  219  A    between atoms: _517  and  _518
REMARK  220  A    between atoms: _517  and  _520
REMARK  221  A    between atoms: _520  and  _521
REMARK  222  A    between atoms: _521  and  _522
REMARK  223  A    between atoms: _525  and  _527
REMARK  224  A    between atoms: _527  and  _528
REMARK  225  A    between atoms: _527  and  _530
REMARK  226  A    between atoms: _530  and  _531
REMARK                            x       y       z     vdW  Elec       q    Type
REMARK                         _______ _______ _______ _____ _____    ______ ____
ROOT
ATOM      1  CB  HIS A   1      32.538  85.796  30.210  0.00  0.00    +0.072 C 
ENDROOT
BRANCH   1   2
ATOM      2  CG  HIS A   1      33.291  85.035  29.159  0.00  0.00    +0.082 A 
ATOM      3  CD2 HIS A   1      33.617  83.727  29.058  0.00  0.00    +0.115 A 
ATOM      4  NE2 HIS A   1      34.348  83.577  27.904  0.00  0.00    -0.221 NA
ATOM      5  CE1 HIS A   1      34.500  84.758  27.342  0.00  0.00    +0.199 A 
ATOM      6  ND1 HIS A   1      33.872  85.650  28.080  0.00  0.00    -0.227 NA
ENDBRANCH   1   2
BRANCH   1   7
ATOM      7  CA  HIS A   1      31.141  86.271  29.799  0.00  0.00    +0.139 C 
BRANCH   7   8
ATOM      8  N   HIS A   1      30.211  85.154  29.592  0.00  0.00    -0.239 NA
ATOM      9  H   HIS A   1      30.585  84.202  29.406  0.00  0.00    +0.142 HD
ENDBRANCH   7   8
BRANCH   7  10
ATOM     10  C   HIS A   1      31.231  87.234  28.639  0.00  0.00    +0.224 C 
ATOM     11  O   HIS A   1      31.769  88.328  28.792  0.00  0.00    -0.287 OA
ENDBRANCH   7  10
ENDBRANCH   1   7
TORSDOF 4
REMARK  Name = ../refined-set-2016/4wkp/4wkp_pocket.pdb
REMARK  226 active torsions:
REMARK  status: ('A' for Active; 'I' for Inactive)
REMARK    1  A    between atoms: _1  and  _3
REMARK    2  A    between atoms: _3  and  _4
REMARK    3  A    between atoms: _6  and  _8
REMARK    4  A    between atoms: _8  and  _9
REMARK    5  A    between atoms: _12  and  _14
REMARK    6  A    between atoms: _14  and  _15
REMARK    7  A    between atoms: _14  and  _17
REMARK    8  A    between atoms: _17  and  _18
REMARK    9  A    between atoms: _18  and  _19
REMARK   10  A    between atoms: _21  and  _23
REMARK   11  A    between atoms: _23  and  _24
REMARK   12  A    between atoms: _23  and  _26
REMARK   13  A    between atoms: _26  and  _27
REMARK   14  A    between atoms: _27  and  _28
REMARK   15  A    between atoms: _31  and  _33
REMARK   16  A    between atoms: _33  and  _34
REMARK   17  A    between atoms: _33  and  _36
REMARK   18  A    between atoms: _36  and  _37
REMARK   19  A    between atoms: _37  and  _38
REMARK   20  A    between atoms: _41  and  _43
REMARK   21  A    between atoms: _43  and  _44
REMARK   22  A    between atoms: _43  and  _46
REMARK   23  A    between atoms: _46  and  _47
REMARK   24  A    between atoms: _49  and  _51
REMARK   25  A    between atoms: _51  and  _52
REMARK   26  A    between atoms: _51  and  _54
REMARK   27  A    between atoms: _54  and  _55
REMARK   28  A    between atoms: _55  and  _56
REMARK   29  A    between atoms: _56  and  _57
REMARK   30  A    between atoms: _57  and  _58
REMARK   31  A    between atoms: _62  and  _64
REMARK   32  A    between atoms: _64  and  _65
REMARK   33  A    between atoms: _64  and  _67
REMARK   34  A    between atoms: _67  and  _68
REMARK   35  A    between atoms: _71  and  _73
REMARK   36  A    between atoms: _73  and  _74
REMARK   37  A    between atoms: _76  and  _78
REMARK   38  A    between atoms: _78  and  _79
REMARK   39  A    between atoms: _78  and  _81
REMARK   40  A    between atoms: _81  and  _82
REMARK   41  A    between atoms: _88  and  _90
REMARK   42  A    between atoms: _90  and  _91
REMARK   43  A    between atoms: _93  and  _95
REMARK   44  A    between atoms: _95  and  _96
REMARK   45  A    between atoms: _95  and  _98
REMARK   46  A    between atoms: _101  and  _103
REMARK   47  A    between atoms: _103  and  _104
REMARK   48  A    between atoms: _107  and  _109
REMARK   49  A    between atoms: _109  and  _110
REMARK   50  A    between atoms: _112  and  _114
REMARK   51  A    between atoms: _114  and  _115
REMARK   52  A    between atoms: _114  and  _117
REMARK   53  A    between atoms: _117  and  _118
REMARK   54  A    between atoms: _120  and  _122
REMARK   55  A    between atoms: _122  and  _123
REMARK   56  A    between atoms: _122  and  _125
REMARK   57  A    between atoms: _125  and  _126
REMARK   58  A    between atoms: _129  and  _131
REMARK   59  A    between atoms: _131  and  _132
REMARK   60  A    between atoms: _131  and  _134
REMARK   61  A    between atoms: _134  and  _135
REMARK   62  A    between atoms: _140  and  _142
REMARK   63  A    between atoms: _142  and  _143
REMARK   64  A    between atoms: _146  and  _148
REMARK   65  A    between atoms: _148  and  _149
REMARK   66  A    between atoms: _148  and  _151
REMARK   67  A    between atoms: _151  and  _152
REMARK   68  A    between atoms: _154  and  _156
REMARK   69  A    between atoms: _156  and  _157
REMARK   70  A    between atoms: _159  and  _161
REMARK   71  A    between atoms: _161  and  _162
REMARK   72  A    between atoms: _161  and  _164
REMARK   73  A    between atoms: _164  and  _165
REMARK   74  A    between atoms: _168  and  _170
REMARK   75  A    between atoms: _170  and  _171
REMARK   76  A    between atoms: _170  and  _173
REMARK   77  A    between atoms: _173  and  _174
REMARK   78  A    between atoms: _174  and  _175
REMARK   79  A    between atoms: _180  and  _182
REMARK   80  A    between atoms: _182  and  _183
REMARK   81  A    between atoms: _182  and  _185
REMARK   82  A    between atoms: _185  and  _186
REMARK   83  A    between atoms: _192  and  _194
REMARK   84  A    between atoms: _194  and  _195
REMARK   85  A    between atoms: _194  and  _197
REMARK   86  A    between atoms: _200  and  _202
REMARK   87  A    between atoms: _202  and  _203
REMARK   88  A    between atoms: _202  and  _205
REMARK   89  A    between atoms: _205  and  _206
REMARK   90  A    between atoms: _211  and  _213
REMARK   91  A    between atoms: _213  and  _214
REMARK   92  A    between atoms: _213  and  _216
REMARK   93  A    between atoms: _216  and  _217
REMARK   94  A    between atoms: _219  and  _221
REMARK   95  A    between atoms: _221  and  _222
REMARK   96  A    between atoms: _221  and  _224
REMARK   97  A    between atoms: _224  and  _225
REMARK   98  A    between atoms: _225  and  _226
REMARK   99  A    between atoms: _226  and  _227
REMARK  100  A    between atoms: _227  and  _228
REMARK  101  A    between atoms: _232  and  _234
REMARK  102  A    between atoms: _234  and  _235
REMARK  103  A    between atoms: _234  and  _237
REMARK  104  A    between atoms: _237  and  _238
REMARK  105  A    between atoms: _241  and  _243
REMARK  106  A    between atoms: _243  and  _244
REMARK  107  A    between atoms: _247  and  _249
REMARK  108  A    between atoms: _249  and  _250
REMARK  109  A    between atoms: _249  and  _252
REMARK  110  A    between atoms: _255  and  _257
REMARK  111  A    between atoms: _257  and  _258
REMARK  112  A    between atoms: _257  and  _260
REMARK  113  A    between atoms: _260  and  _261
REMARK  114  A    between atoms: _261  and  _262
REMARK  115  A    between atoms: _265  and  _267
REMARK  116  A    between atoms: _267  and  _268
REMARK  117  A    between atoms: _267  and  _270
REMARK  118  A    between atoms: _270  and  _271
REMARK  119  A    between atoms: _271  and  _272
REMARK  120  A    between atoms: _274  and  _276
REMARK  121  A    between atoms: _276  and  _277
REMARK  122  A    between atoms: _276  and  _279
REMARK  123  A    between atoms: _279  and  _280
REMARK  124  A    between atoms: _280  and  _281
REMARK  125  A    between atoms: _284  and  _286
REMARK  126  A    between atoms: _286  and  _287
REMARK  127  A    between atoms: _289  and  _291
REMARK  128  A    between atoms: _291  and  _292
REMARK  129  A    between atoms: _291  and  _294
REMARK  130  A    between atoms: _294  and  _295
REMARK  131  A    between atoms: _295  and  _296
REMARK  132  A    between atoms: _296  and  _297
REMARK  133  A    between atoms: _306  and  _308
REMARK  134  A    between atoms: _308  and  _309
REMARK  135  A    between atoms: _308  and  _311
REMARK  136  A    between atoms: _311  and  _312
REMARK  137  A    between atoms: _314  and  _316
REMARK  138  A    between atoms: _316  and  _317
REMARK  139  A    between atoms: _316  and  _319
REMARK  140  A    between atoms: _319  and  _320
REMARK  141  A    between atoms: _323  and  _325
REMARK  142  A    between atoms: _325  and  _326
REMARK  143  A    between atoms: _325  and  _328
REMARK  144  A    between atoms: _328  and  _329
REMARK  145  A    between atoms: _331  and  _333
REMARK  146  A    between atoms: _333  and  _334
REMARK  147  A    between atoms: _333  and  _336
REMARK  148  A    between atoms: _336  and  _337
REMARK  149  A    between atoms: _340  and  _342
REMARK  150  A    between atoms: _342  and  _343
REMARK  151  A    between atoms: _342  and  _345
REMARK  152  A    between atoms: _345  and  _346
REMARK  153  A    between atoms: _351  and  _353
REMARK  154  A    between atoms: _353  and  _354
REMARK  155  A    between atoms: _357  and  _359
REMARK  156  A    between atoms: _359  and  _360
REMARK  157  A    between atoms: _359  and  _362
REMARK  158  A    between atoms: _362  and  _363
REMARK  159  A    between atoms: _366  and  _368
REMARK  160  A    between atoms: _368  and  _369
REMARK  161  A    between atoms: _372  and  _374
REMARK  162  A    between atoms: _374  and  _375
REMARK  163  A    between atoms: _377  and  _379
REMARK  164  A    between atoms: _379  and  _380
REMARK  165  A    between atoms: _379  and  _382
REMARK  166  A    between atoms: _382  and  _383
REMARK  167  A    between atoms: _385  and  _387
REMARK  168  A    between atoms: _387  and  _388
REMARK  169  A    between atoms: _387  and  _390
REMARK  170  A    between atoms: _390  and  _391
REMARK  171  A    between atoms: _397  and  _399
REMARK  172  A    between atoms: _399  and  _400
REMARK  173  A    between atoms: _399  and  _402
REMARK  174  A    between atoms: _402  and  _403
REMARK  175  A    between atoms: _406  and  _408
REMARK  176  A    between atoms: _408  and  _409
REMARK  177  A    between atoms: _408  and  _411
REMARK  178  A    between atoms: _411  and  _412
REMARK  179  A    between atoms: _415  and  _417
REMARK  180  A    between atoms: _417  and  _418
REMARK  181  A    between atoms: _417  and  _420
REMARK  182  A    between atoms: _420  and  _421
REMARK  183  A    between atoms: _423  and  _425
REMARK  184  A    between atoms: _425  and  _426
REMARK  185  A    between atoms: _425  and  _428
REMARK  186  A    between atoms: _428  and  _429
REMARK  187  A    between atoms: _432  and  _434
REMARK  188  A    between atoms: _434  and  _435
REMARK  189  A    between atoms: _434  and  _437
REMARK  190  A    between atoms: _437  and  _438
REMARK  191  A    between atoms: _441  and  _443
REMARK  192  A    between atoms: _443  and  _444
REMARK  193  A    between atoms: _443  and  _446
REMARK  194  A    between atoms: _446  and  _447
REMARK  195  A    between atoms: _449  and  _451
REMARK  196  A    between atoms: _451  and  _452
REMARK  197  A    between atoms: _455  and  _457
REMARK  198  A    between atoms: _457  and  _458
REMARK  199  A    between atoms: _457  and  _460
REMARK  200  A    between atoms: _460  and  _461
REMARK  201  A    between atoms: _467  and  _469
REMARK  202  A    between atoms: _469  and  _470
REMARK  203  A    between atoms: _469  and  _472
REMARK  204  A    between atoms: _472  and  _473
REMARK  205  A    between atoms: _476  and  _478
REMARK  206  A    between atoms: _478  and  _479
REMARK  207  A    between atoms: _478  and  _481
REMARK  208  A    between atoms: _481  and  _482
REMARK  209  A    between atoms: _487  and  _489
REMARK  210  A    between atoms: _489  and  _490
REMARK  211  A    between atoms: _489  and  _492
REMARK  212  A    between atoms: _492  and  _493
REMARK  213  A    between atoms: _499  and  _501
REMARK  214  A    between atoms: _501  and  _502
REMARK  215  A    between atoms: _501  and  _504
REMARK  216  A    between atoms: _504  and  _505
REMARK  217  A    between atoms: _509  and  _510
REMARK  218  A    between atoms: _515  and  _517
REMARK  219  A    between atoms: _517  and  _518
REMARK  220  A    between atoms: _517  and  _520
REMARK  221  A    between atoms: _520  and  _521
REMARK  222  A    between atoms: _521  and  _522
REMARK  223  A    between atoms: _525  and  _527
REMARK  224  A    between atoms: _527  and  _528
REMARK  225  A    between atoms: _527  and  _530
REMARK  226  A    between atoms: _530  and  _531
REMARK                            x       y       z     vdW  Elec       q    Type
REMARK                         _______ _______ _______ _____ _____    ______ ____
ROOT
ATOM      1  C   GLN A   5      36.841  81.301  23.189  0.00  0.00    +0.241 C 
ATOM      2  O   GLN A   5      36.560  81.066  24.359  0.00  0.00    -0.273 OA
ATOM      3  N   PHE A   6      37.888  80.757  22.571  0.00  0.00    -0.297 N 
ATOM      4  H   PHE A   6      37.988  80.847  21.540  0.00  0.00    +0.150 HD
ENDROOT
BRANCH   3   5
ATOM      5  CA  PHE A   6      38.898  80.032  23.343  0.00  0.00    +0.153 C 
BRANCH   5   6
ATOM      6  C   PHE A   6      39.826  81.102  23.894  0.00  0.00    +0.241 C 
ATOM      7  N   VAL A   7      39.916  81.187  25.221  0.00  0.00    -0.297 N 
ATOM      8  H   VAL A   7      39.440  80.470  25.804  0.00  0.00    +0.150 HD
ATOM      9  O   PHE A   6      40.426  81.849  23.133  0.00  0.00    -0.273 OA
BRANCH   7  10
ATOM     10  CA  VAL A   7      40.654  82.244  25.877  0.00  0.00    +0.149 C 
BRANCH  10  11
ATOM     11  C   VAL A   7      42.129  81.850  25.980  0.00  0.00    +0.241 C 
ATOM     12  O   VAL A   7      42.469  80.760  26.454  0.00  0.00    -0.273 OA
ATOM     13  N   HIS A   8      43.008  82.742  25.514  0.00  0.00    -0.297 N 
ATOM     14  H   HIS A   8      42.660  83.655  25.157  0.00  0.00    +0.150 HD
BRANCH  13  15
ATOM     15  CA  HIS A   8      44.450  82.471  25.491  0.00  0.00    +0.155 C 
BRANCH  15  16
ATOM     16  C   HIS A   8      45.236  83.771  25.611  0.00  0.00    +0.241 C 
ATOM     17  N   SER A   9      44.809  84.611  26.545  0.00  0.00    -0.296 N 
ATOM     18  H   SER A   9      43.975  84.357  27.112  0.00  0.00    +0.150 HD
ATOM     19  O   HIS A   8      46.204  84.003  24.885  0.00  0.00    -0.273 OA
BRANCH  17  20
ATOM     20  CA  SER A   9      45.478  85.880  26.796  0.00  0.00    +0.166 C 
BRANCH  20  21
ATOM     21  CB  SER A   9      45.314  86.296  28.238  0.00  0.00    +0.229 C 
ATOM     22  OG  SER A   9      44.270  86.066  28.852  0.00  0.00    -0.286 OA
ENDBRANCH  20  21
BRANCH  20  23
ATOM     23  C   SER A   9      44.916  86.968  25.891  0.00  0.00    +0.165 C 
BRANCH  23  24
ATOM     24  O   SER A   9      43.600  87.315  26.269  0.00  0.00    -0.380 OA
ATOM     25  H   SER A   9      43.260  88.022  25.666  0.00  0.00    +0.211 HD
ENDBRANCH  23  24
ENDBRANCH  20  23
ENDBRANCH  17  20
ENDBRANCH  15  16
BRANCH  15  26
ATOM     26  CB  HIS A   8      44.848  81.696  24.224  0.00  0.00    +0.076 C 
BRANCH  26  27
ATOM     27  CG  HIS A   8      44.548  82.406  22.936  0.00  0.00    +0.082 A 
ATOM     28  CD2 HIS A   8      43.383  82.836  22.394  0.00  0.00    +0.115 A 
ATOM     29  NE2 HIS A   8      43.681  83.393  21.175  0.00  0.00    -0.221 NA
ATOM     30  CE1 HIS A   8      44.984  83.312  20.973  0.00  0.00    +0.199 A 
ATOM     31  ND1 HIS A   8      45.531  82.712  22.016  0.00  0.00    -0.227 NA
ENDBRANCH  26  27
ENDBRANCH  15  26
ENDBRANCH  13  15
ENDBRANCH  10  11
BRANCH  10  32
ATOM     32  CB  VAL A   7      40.024  82.571  27.248  0.00  0.00    +0.027 C 
ATOM     33  CG2 VAL A   7      40.855  83.581  28.012  0.00  0.00    +0.002 C 
ATOM     34  CG1 VAL A   7      38.614  83.108  27.043  0.00  0.00    +0.002 C 
ENDBRANCH  10  32
ENDBRANCH   7  10
ENDBRANCH   5   6
BRANCH   5  35
ATOM     35  CB  PHE A   6      39.651  79.007  22.492  0.00  0.00    +0.055 C 
BRANCH  35  36
ATOM     36  CG  PHE A   6      40.637  78.172  23.272  0.00  0.00    -0.020 A 
ATOM     37  CD2 PHE A   6      40.246  76.986  23.868  0.00  0.00    -0.004 A 
ATOM     38  CE2 PHE A   6      41.160  76.205  24.569  0.00  0.00    -0.000 A 
ATOM     39  CZ  PHE A   6      42.477  76.617  24.668  0.00  0.00    -0.000 A 
ATOM     40  CE1 PHE A   6      42.885  77.792  24.071  0.00  0.00    -0.000 A 
ATOM     41  CD1 PHE A   6      41.976  78.560  23.370  0.00  0.00    -0.004 A 
ENDBRANCH  35  36
ENDBRANCH   5  35
ENDBRANCH   3   5
BRANCH   1  42
ATOM     42  CA  GLN A   5      35.992  82.238  22.367  0.00  0.00    +0.149 C 
BRANCH  42  44
ATOM     43  C   ASP A   4      33.656  81.851  21.773  0.00  0.00    +0.241 C 
ATOM     44  N   GLN A   5      34.591  82.043  22.705  0.00  0.00    -0.297 N 
ATOM     45  H   GLN A   5      34.309  82.054  23.706  0.00  0.00    +0.150 HD
ATOM     46  O   ASP A   4      33.915  81.856  20.563  0.00  0.00    -0.273 OA
BRANCH  43  47
ATOM     47  CA  ASP A   4      32.239  81.564  22.298  0.00  0.00    +0.160 C 
BRANCH  47  50
ATOM     48  C   GLY A   3      32.125  81.519  24.727  0.00  0.00    +0.243 C 
ATOM     49  O   GLY A   3      32.604  80.378  24.764  0.00  0.00    -0.273 OA
ATOM     50  N   ASP A   4      31.963  82.197  23.589  0.00  0.00    -0.296 N 
ATOM     51  H   ASP A   4      31.638  83.184  23.619  0.00  0.00    +0.150 HD
BRANCH  48  52
ATOM     52  CA  GLY A   3      31.767  82.240  26.004  0.00  0.00    +0.176 C 
BRANCH  52  55
ATOM     53  C   SER A   2      31.256  81.557  28.279  0.00  0.00    +0.243 C 
ATOM     54  O   SER A   2      30.499  82.509  28.440  0.00  0.00    -0.273 OA
ATOM     55  N   GLY A   3      31.927  81.365  27.150  0.00  0.00    -0.295 N 
ATOM     56  H   GLY A   3      32.587  80.564  27.085  0.00  0.00    +0.150 HD
BRANCH  53  57
ATOM     57  CA  SER A   2      31.455  80.529  29.368  0.00  0.00    +0.178 C 
BRANCH  57  60
ATOM     58  C   ALA A   1      32.704  81.054  31.433  0.00  0.00    +0.238 C 
ATOM     59  O   ALA A   1      33.683  80.383  31.121  0.00  0.00    -0.274 OA
ATOM     60  N   SER A   2      31.610  81.173  30.671  0.00  0.00    -0.295 N 
ATOM     61  H   SER A   2      30.826  81.757  31.026  0.00  0.00    +0.150 HD
BRANCH  58  62
ATOM     62  CA  ALA A   1      32.711  81.807  32.744  0.00  0.00    +0.145 C 
ATOM     63  CB  ALA A   1      33.744  82.913  32.682  0.00  0.00    +0.028 C 
BRANCH  62  64
ATOM     64  N   ALA A   1      33.047  80.870  33.821  0.00  0.00    -0.238 NA
ATOM     65  H   ALA A   1      34.049  80.636  33.972  0.00  0.00    +0.142 HD
ENDBRANCH  62  64
ENDBRANCH  58  62
ENDBRANCH  57  60
BRANCH  57  66
ATOM     66  CB  SER A   2      30.244  79.605  29.364  0.00  0.00    +0.166 C 
BRANCH  66  67
ATOM     67  OG  SER A   2      30.305  78.641  30.403  0.00  0.00    -0.380 OA
ATOM     68  H   SER A   2      31.117  78.086  30.290  0.00  0.00    +0.211 HD
ENDBRANCH  66  67
ENDBRANCH  57  66
ENDBRANCH  53  57
ENDBRANCH  52  55
ENDBRANCH  48  52
ENDBRANCH  47  50
BRANCH  47  69
ATOM     69  CB  ASP A   4      31.128  81.882  21.305  0.00  0.00    +0.143 C 
BRANCH  69  70
ATOM     70  CG  ASP A   4      30.007  80.858  21.350  0.00  0.00    +0.367 C 
ATOM     71  OD2 ASP A   4      30.223  79.742  21.886  0.00  0.00    -0.246 OA
ATOM     72  OD1 ASP A   4      28.921  81.159  20.858  0.00  0.00    -0.246 OA
ENDBRANCH  69  70
ENDBRANCH  47  69
ENDBRANCH  43  47
ENDBRANCH  42  44
BRANCH  42  73
ATOM     73  CB  GLN A   5      36.421  83.673  22.611  0.00  0.00    +0.039 C 
BRANCH  73  74
ATOM     74  CG  GLN A   5      35.498  84.707  21.985  0.00  0.00    +0.087 C 
BRANCH  74  75
ATOM     75  CD  GLN A   5      34.269  84.942  22.823  0.00  0.00    +0.219 C 
ATOM     76  OE1 GLN A   5      34.356  84.989  24.051  0.00  0.00    -0.275 OA
ATOM     77  NE2 GLN A   5      33.117  85.079  22.177  0.00  0.00    -0.329 N 
ATOM     78 HE21 GLN A   5      32.237  85.234  22.710  0.00  0.00    +0.145 HD
ATOM     79 HE22 GLN A   5      33.094  85.032  21.138  0.00  0.00    +0.145 HD
ENDBRANCH  74  75
ENDBRANCH  73  74
ENDBRANCH  42  73
ENDBRANCH   1  42
TORSDOF 32
REMARK  Name = ../refined-set-2016/4wkp/4wkp_pocket.pdb
REMARK  226 active torsions:
REMARK  status: ('A' for Active; 'I' for Inactive)
REMARK    1  A    between atoms: _1  and  _3
REMARK    2  A    between atoms: _3  and  _4
REMARK    3  A    between atoms: _6  and  _8
REMARK    4  A    between atoms: _8  and  _9
REMARK    5  A    between atoms: _12  and  _14
REMARK    6  A    between atoms: _14  and  _15
REMARK    7  A    between atoms: _14  and  _17
REMARK    8  A    between atoms: _17  and  _18
REMARK    9  A    between atoms: _18  and  _19
REMARK   10  A    between atoms: _21  and  _23
REMARK   11  A    between atoms: _23  and  _24
REMARK   12  A    between atoms: _23  and  _26
REMARK   13  A    between atoms: _26  and  _27
REMARK   14  A    between atoms: _27  and  _28
REMARK   15  A    between atoms: _31  and  _33
REMARK   16  A    between atoms: _33  and  _34
REMARK   17  A    between atoms: _33  and  _36
REMARK   18  A    between atoms: _36  and  _37
REMARK   19  A    between atoms: _37  and  _38
REMARK   20  A    between atoms: _41  and  _43
REMARK   21  A    between atoms: _43  and  _44
REMARK   22  A    between atoms: _43  and  _46
REMARK   23  A    between atoms: _46  and  _47
REMARK   24  A    between atoms: _49  and  _51
REMARK   25  A    between atoms: _51  and  _52
REMARK   26  A    between atoms: _51  and  _54
REMARK   27  A    between atoms: _54  and  _55
REMARK   28  A    between atoms: _55  and  _56
REMARK   29  A    between atoms: _56  and  _57
REMARK   30  A    between atoms: _57  and  _58
REMARK   31  A    between atoms: _62  and  _64
REMARK   32  A    between atoms: _64  and  _65
REMARK   33  A    between atoms: _64  and  _67
REMARK   34  A    between atoms: _67  and  _68
REMARK   35  A    between atoms: _71  and  _73
REMARK   36  A    between atoms: _73  and  _74
REMARK   37  A    between atoms: _76  and  _78
REMARK   38  A    between atoms: _78  and  _79
REMARK   39  A    between atoms: _78  and  _81
REMARK   40  A    between atoms: _81  and  _82
REMARK   41  A    between atoms: _88  and  _90
REMARK   42  A    between atoms: _90  and  _91
REMARK   43  A    between atoms: _93  and  _95
REMARK   44  A    between atoms: _95  and  _96
REMARK   45  A    between atoms: _95  and  _98
REMARK   46  A    between atoms: _101  and  _103
REMARK   47  A    between atoms: _103  and  _104
REMARK   48  A    between atoms: _107  and  _109
REMARK   49  A    between atoms: _109  and  _110
REMARK   50  A    between atoms: _112  and  _114
REMARK   51  A    between atoms: _114  and  _115
REMARK   52  A    between atoms: _114  and  _117
REMARK   53  A    between atoms: _117  and  _118
REMARK   54  A    between atoms: _120  and  _122
REMARK   55  A    between atoms: _122  and  _123
REMARK   56  A    between atoms: _122  and  _125
REMARK   57  A    between atoms: _125  and  _126
REMARK   58  A    between atoms: _129  and  _131
REMARK   59  A    between atoms: _131  and  _132
REMARK   60  A    between atoms: _131  and  _134
REMARK   61  A    between atoms: _134  and  _135
REMARK   62  A    between atoms: _140  and  _142
REMARK   63  A    between atoms: _142  and  _143
REMARK   64  A    between atoms: _146  and  _148
REMARK   65  A    between atoms: _148  and  _149
REMARK   66  A    between atoms: _148  and  _151
REMARK   67  A    between atoms: _151  and  _152
REMARK   68  A    between atoms: _154  and  _156
REMARK   69  A    between atoms: _156  and  _157
REMARK   70  A    between atoms: _159  and  _161
REMARK   71  A    between atoms: _161  and  _162
REMARK   72  A    between atoms: _161  and  _164
REMARK   73  A    between atoms: _164  and  _165
REMARK   74  A    between atoms: _168  and  _170
REMARK   75  A    between atoms: _170  and  _171
REMARK   76  A    between atoms: _170  and  _173
REMARK   77  A    between atoms: _173  and  _174
REMARK   78  A    between atoms: _174  and  _175
REMARK   79  A    between atoms: _180  and  _182
REMARK   80  A    between atoms: _182  and  _183
REMARK   81  A    between atoms: _182  and  _185
REMARK   82  A    between atoms: _185  and  _186
REMARK   83  A    between atoms: _192  and  _194
REMARK   84  A    between atoms: _194  and  _195
REMARK   85  A    between atoms: _194  and  _197
REMARK   86  A    between atoms: _200  and  _202
REMARK   87  A    between atoms: _202  and  _203
REMARK   88  A    between atoms: _202  and  _205
REMARK   89  A    between atoms: _205  and  _206
REMARK   90  A    between atoms: _211  and  _213
REMARK   91  A    between atoms: _213  and  _214
REMARK   92  A    between atoms: _213  and  _216
REMARK   93  A    between atoms: _216  and  _217
REMARK   94  A    between atoms: _219  and  _221
REMARK   95  A    between atoms: _221  and  _222
REMARK   96  A    between atoms: _221  and  _224
REMARK   97  A    between atoms: _224  and  _225
REMARK   98  A    between atoms: _225  and  _226
REMARK   99  A    between atoms: _226  and  _227
REMARK  100  A    between atoms: _227  and  _228
REMARK  101  A    between atoms: _232  and  _234
REMARK  102  A    between atoms: _234  and  _235
REMARK  103  A    between atoms: _234  and  _237
REMARK  104  A    between atoms: _237  and  _238
REMARK  105  A    between atoms: _241  and  _243
REMARK  106  A    between atoms: _243  and  _244
REMARK  107  A    between atoms: _247  and  _249
REMARK  108  A    between atoms: _249  and  _250
REMARK  109  A    between atoms: _249  and  _252
REMARK  110  A    between atoms: _255  and  _257
REMARK  111  A    between atoms: _257  and  _258
REMARK  112  A    between atoms: _257  and  _260
REMARK  113  A    between atoms: _260  and  _261
REMARK  114  A    between atoms: _261  and  _262
REMARK  115  A    between atoms: _265  and  _267
REMARK  116  A    between atoms: _267  and  _268
REMARK  117  A    between atoms: _267  and  _270
REMARK  118  A    between atoms: _270  and  _271
REMARK  119  A    between atoms: _271  and  _272
REMARK  120  A    between atoms: _274  and  _276
REMARK  121  A    between atoms: _276  and  _277
REMARK  122  A    between atoms: _276  and  _279
REMARK  123  A    between atoms: _279  and  _280
REMARK  124  A    between atoms: _280  and  _281
REMARK  125  A    between atoms: _284  and  _286
REMARK  126  A    between atoms: _286  and  _287
REMARK  127  A    between atoms: _289  and  _291
REMARK  128  A    between atoms: _291  and  _292
REMARK  129  A    between atoms: _291  and  _294
REMARK  130  A    between atoms: _294  and  _295
REMARK  131  A    between atoms: _295  and  _296
REMARK  132  A    between atoms: _296  and  _297
REMARK  133  A    between atoms: _306  and  _308
REMARK  134  A    between atoms: _308  and  _309
REMARK  135  A    between atoms: _308  and  _311
REMARK  136  A    between atoms: _311  and  _312
REMARK  137  A    between atoms: _314  and  _316
REMARK  138  A    between atoms: _316  and  _317
REMARK  139  A    between atoms: _316  and  _319
REMARK  140  A    between atoms: _319  and  _320
REMARK  141  A    between atoms: _323  and  _325
REMARK  142  A    between atoms: _325  and  _326
REMARK  143  A    between atoms: _325  and  _328
REMARK  144  A    between atoms: _328  and  _329
REMARK  145  A    between atoms: _331  and  _333
REMARK  146  A    between atoms: _333  and  _334
REMARK  147  A    between atoms: _333  and  _336
REMARK  148  A    between atoms: _336  and  _337
REMARK  149  A    between atoms: _340  and  _342
REMARK  150  A    between atoms: _342  and  _343
REMARK  151  A    between atoms: _342  and  _345
REMARK  152  A    between atoms: _345  and  _346
REMARK  153  A    between atoms: _351  and  _353
REMARK  154  A    between atoms: _353  and  _354
REMARK  155  A    between atoms: _357  and  _359
REMARK  156  A    between atoms: _359  and  _360
REMARK  157  A    between atoms: _359  and  _362
REMARK  158  A    between atoms: _362  and  _363
REMARK  159  A    between atoms: _366  and  _368
REMARK  160  A    between atoms: _368  and  _369
REMARK  161  A    between atoms: _372  and  _374
REMARK  162  A    between atoms: _374  and  _375
REMARK  163  A    between atoms: _377  and  _379
REMARK  164  A    between atoms: _379  and  _380
REMARK  165  A    between atoms: _379  and  _382
REMARK  166  A    between atoms: _382  and  _383
REMARK  167  A    between atoms: _385  and  _387
REMARK  168  A    between atoms: _387  and  _388
REMARK  169  A    between atoms: _387  and  _390
REMARK  170  A    between atoms: _390  and  _391
REMARK  171  A    between atoms: _397  and  _399
REMARK  172  A    between atoms: _399  and  _400
REMARK  173  A    between atoms: _399  and  _402
REMARK  174  A    between atoms: _402  and  _403
REMARK  175  A    between atoms: _406  and  _408
REMARK  176  A    between atoms: _408  and  _409
REMARK  177  A    between atoms: _408  and  _411
REMARK  178  A    between atoms: _411  and  _412
REMARK  179  A    between atoms: _415  and  _417
REMARK  180  A    between atoms: _417  and  _418
REMARK  181  A    between atoms: _417  and  _420
REMARK  182  A    between atoms: _420  and  _421
REMARK  183  A    between atoms: _423  and  _425
REMARK  184  A    between atoms: _425  and  _426
REMARK  185  A    between atoms: _425  and  _428
REMARK  186  A    between atoms: _428  and  _429
REMARK  187  A    between atoms: _432  and  _434
REMARK  188  A    between atoms: _434  and  _435
REMARK  189  A    between atoms: _434  and  _437
REMARK  190  A    between atoms: _437  and  _438
REMARK  191  A    between atoms: _441  and  _443
REMARK  192  A    between atoms: _443  and  _444
REMARK  193  A    between atoms: _443  and  _446
REMARK  194  A    between atoms: _446  and  _447
REMARK  195  A    between atoms: _449  and  _451
REMARK  196  A    between atoms: _451  and  _452
REMARK  197  A    between atoms: _455  and  _457
REMARK  198  A    between atoms: _457  and  _458
REMARK  199  A    between atoms: _457  and  _460
REMARK  200  A    between atoms: _460  and  _461
REMARK  201  A    between atoms: _467  and  _469
REMARK  202  A    between atoms: _469  and  _470
REMARK  203  A    between atoms: _469  and  _472
REMARK  204  A    between atoms: _472  and  _473
REMARK  205  A    between atoms: _476  and  _478
REMARK  206  A    between atoms: _478  and  _479
REMARK  207  A    between atoms: _478  and  _481
REMARK  208  A    between atoms: _481  and  _482
REMARK  209  A    between atoms: _487  and  _489
REMARK  210  A    between atoms: _489  and  _490
REMARK  211  A    between atoms: _489  and  _492
REMARK  212  A    between atoms: _492  and  _493
REMARK  213  A    between atoms: _499  and  _501
REMARK  214  A    between atoms: _501  and  _502
REMARK  215  A    between atoms: _501  and  _504
REMARK  216  A    between atoms: _504  and  _505
REMARK  217  A    between atoms: _509  and  _510
REMARK  218  A    between atoms: _515  and  _517
REMARK  219  A    between atoms: _517  and  _518
REMARK  220  A    between atoms: _517  and  _520
REMARK  221  A    between atoms: _520  and  _521
REMARK  222  A    between atoms: _521  and  _522
REMARK  223  A    between atoms: _525  and  _527
REMARK  224  A    between atoms: _527  and  _528
REMARK  225  A    between atoms: _527  and  _530
REMARK  226  A    between atoms: _530  and  _531
REMARK                            x       y       z     vdW  Elec       q    Type
REMARK                         _______ _______ _______ _____ _____    ______ ____
ROOT
ATOM      1  CG  LYS A   1      43.360  84.299  31.535  0.00  0.00    -0.000 C 
ENDROOT
BRANCH   1   2
ATOM      2  CB  LYS A   1      43.082  85.530  32.387  0.00  0.00    +0.025 C 
BRANCH   2   3
ATOM      3  CA  LYS A   1      41.798  86.289  32.021  0.00  0.00    +0.133 C 
BRANCH   3   4
ATOM      4  N   LYS A   1      41.870  86.909  30.693  0.00  0.00    -0.239 NA
ATOM      5  H   LYS A   1      42.719  86.781  30.106  0.00  0.00    +0.142 HD
ENDBRANCH   3   4
BRANCH   3   6
ATOM      6  C   LYS A   1      41.529  87.340  33.084  0.00  0.00    +0.224 C 
ATOM      7  O   LYS A   1      40.694  87.150  33.965  0.00  0.00    -0.287 OA
ENDBRANCH   3   6
ENDBRANCH   2   3
ENDBRANCH   1   2
BRANCH   1   8
ATOM      8  CD  LYS A   1      44.687  83.661  31.920  0.00  0.00    -0.024 C 
BRANCH   8   9
ATOM      9  CE  LYS A   1      44.637  83.046  33.305  0.00  0.00    -0.086 C 
BRANCH   9  10
ATOM     10  NZ  LYS A   1      45.915  82.338  33.617  0.00  0.00    +0.380 N 
ATOM     11  HZ1 LYS A   1      45.857  81.925  34.570  0.00  0.00    -0.089 HD
ATOM     12  HZ2 LYS A   1      46.703  83.015  33.578  0.00  0.00    -0.089 HD
ATOM     13  HZ3 LYS A   1      46.071  81.583  32.919  0.00  0.00    -0.089 HD
ENDBRANCH   9  10
ENDBRANCH   8   9
ENDBRANCH   1   8
TORSDOF 7
REMARK  Name = ../refined-set-2016/4wkp/4wkp_pocket.pdb
REMARK  226 active torsions:
REMARK  status: ('A' for Active; 'I' for Inactive)
REMARK    1  A    between atoms: _1  and  _3
REMARK    2  A    between atoms: _3  and  _4
REMARK    3  A    between atoms: _6  and  _8
REMARK    4  A    between atoms: _8  and  _9
REMARK    5  A    between atoms: _12  and  _14
REMARK    6  A    between atoms: _14  and  _15
REMARK    7  A    between atoms: _14  and  _17
REMARK    8  A    between atoms: _17  and  _18
REMARK    9  A    between atoms: _18  and  _19
REMARK   10  A    between atoms: _21  and  _23
REMARK   11  A    between atoms: _23  and  _24
REMARK   12  A    between atoms: _23  and  _26
REMARK   13  A    between atoms: _26  and  _27
REMARK   14  A    between atoms: _27  and  _28
REMARK   15  A    between atoms: _31  and  _33
REMARK   16  A    between atoms: _33  and  _34
REMARK   17  A    between atoms: _33  and  _36
REMARK   18  A    between atoms: _36  and  _37
REMARK   19  A    between atoms: _37  and  _38
REMARK   20  A    between atoms: _41  and  _43
REMARK   21  A    between atoms: _43  and  _44
REMARK   22  A    between atoms: _43  and  _46
REMARK   23  A    between atoms: _46  and  _47
REMARK   24  A    between atoms: _49  and  _51
REMARK   25  A    between atoms: _51  and  _52
REMARK   26  A    between atoms: _51  and  _54
REMARK   27  A    between atoms: _54  and  _55
REMARK   28  A    between atoms: _55  and  _56
REMARK   29  A    between atoms: _56  and  _57
REMARK   30  A    between atoms: _57  and  _58
REMARK   31  A    between atoms: _62  and  _64
REMARK   32  A    between atoms: _64  and  _65
REMARK   33  A    between atoms: _64  and  _67
REMARK   34  A    between atoms: _67  and  _68
REMARK   35  A    between atoms: _71  and  _73
REMARK   36  A    between atoms: _73  and  _74
REMARK   37  A    between atoms: _76  and  _78
REMARK   38  A    between atoms: _78  and  _79
REMARK   39  A    between atoms: _78  and  _81
REMARK   40  A    between atoms: _81  and  _82
REMARK   41  A    between atoms: _88  and  _90
REMARK   42  A    between atoms: _90  and  _91
REMARK   43  A    between atoms: _93  and  _95
REMARK   44  A    between atoms: _95  and  _96
REMARK   45  A    between atoms: _95  and  _98
REMARK   46  A    between atoms: _101  and  _103
REMARK   47  A    between atoms: _103  and  _104
REMARK   48  A    between atoms: _107  and  _109
REMARK   49  A    between atoms: _109  and  _110
REMARK   50  A    between atoms: _112  and  _114
REMARK   51  A    between atoms: _114  and  _115
REMARK   52  A    between atoms: _114  and  _117
REMARK   53  A    between atoms: _117  and  _118
REMARK   54  A    between atoms: _120  and  _122
REMARK   55  A    between atoms: _122  and  _123
REMARK   56  A    between atoms: _122  and  _125
REMARK   57  A    between atoms: _125  and  _126
REMARK   58  A    between atoms: _129  and  _131
REMARK   59  A    between atoms: _131  and  _132
REMARK   60  A    between atoms: _131  and  _134
REMARK   61  A    between atoms: _134  and  _135
REMARK   62  A    between atoms: _140  and  _142
REMARK   63  A    between atoms: _142  and  _143
REMARK   64  A    between atoms: _146  and  _148
REMARK   65  A    between atoms: _148  and  _149
REMARK   66  A    between atoms: _148  and  _151
REMARK   67  A    between atoms: _151  and  _152
REMARK   68  A    between atoms: _154  and  _156
REMARK   69  A    between atoms: _156  and  _157
REMARK   70  A    between atoms: _159  and  _161
REMARK   71  A    between atoms: _161  and  _162
REMARK   72  A    between atoms: _161  and  _164
REMARK   73  A    between atoms: _164  and  _165
REMARK   74  A    between atoms: _168  and  _170
REMARK   75  A    between atoms: _170  and  _171
REMARK   76  A    between atoms: _170  and  _173
REMARK   77  A    between atoms: _173  and  _174
REMARK   78  A    between atoms: _174  and  _175
REMARK   79  A    between atoms: _180  and  _182
REMARK   80  A    between atoms: _182  and  _183
REMARK   81  A    between atoms: _182  and  _185
REMARK   82  A    between atoms: _185  and  _186
REMARK   83  A    between atoms: _192  and  _194
REMARK   84  A    between atoms: _194  and  _195
REMARK   85  A    between atoms: _194  and  _197
REMARK   86  A    between atoms: _200  and  _202
REMARK   87  A    between atoms: _202  and  _203
REMARK   88  A    between atoms: _202  and  _205
REMARK   89  A    between atoms: _205  and  _206
REMARK   90  A    between atoms: _211  and  _213
REMARK   91  A    between atoms: _213  and  _214
REMARK   92  A    between atoms: _213  and  _216
REMARK   93  A    between atoms: _216  and  _217
REMARK   94  A    between atoms: _219  and  _221
REMARK   95  A    between atoms: _221  and  _222
REMARK   96  A    between atoms: _221  and  _224
REMARK   97  A    between atoms: _224  and  _225
REMARK   98  A    between atoms: _225  and  _226
REMARK   99  A    between atoms: _226  and  _227
REMARK  100  A    between atoms: _227  and  _228
REMARK  101  A    between atoms: _232  and  _234
REMARK  102  A    between atoms: _234  and  _235
REMARK  103  A    between atoms: _234  and  _237
REMARK  104  A    between atoms: _237  and  _238
REMARK  105  A    between atoms: _241  and  _243
REMARK  106  A    between atoms: _243  and  _244
REMARK  107  A    between atoms: _247  and  _249
REMARK  108  A    between atoms: _249  and  _250
REMARK  109  A    between atoms: _249  and  _252
REMARK  110  A    between atoms: _255  and  _257
REMARK  111  A    between atoms: _257  and  _258
REMARK  112  A    between atoms: _257  and  _260
REMARK  113  A    between atoms: _260  and  _261
REMARK  114  A    between atoms: _261  and  _262
REMARK  115  A    between atoms: _265  and  _267
REMARK  116  A    between atoms: _267  and  _268
REMARK  117  A    between atoms: _267  and  _270
REMARK  118  A    between atoms: _270  and  _271
REMARK  119  A    between atoms: _271  and  _272
REMARK  120  A    between atoms: _274  and  _276
REMARK  121  A    between atoms: _276  and  _277
REMARK  122  A    between atoms: _276  and  _279
REMARK  123  A    between atoms: _279  and  _280
REMARK  124  A    between atoms: _280  and  _281
REMARK  125  A    between atoms: _284  and  _286
REMARK  126  A    between atoms: _286  and  _287
REMARK  127  A    between atoms: _289  and  _291
REMARK  128  A    between atoms: _291  and  _292
REMARK  129  A    between atoms: _291  and  _294
REMARK  130  A    between atoms: _294  and  _295
REMARK  131  A    between atoms: _295  and  _296
REMARK  132  A    between atoms: _296  and  _297
REMARK  133  A    between atoms: _306  and  _308
REMARK  134  A    between atoms: _308  and  _309
REMARK  135  A    between atoms: _308  and  _311
REMARK  136  A    between atoms: _311  and  _312
REMARK  137  A    between atoms: _314  and  _316
REMARK  138  A    between atoms: _316  and  _317
REMARK  139  A    between atoms: _316  and  _319
REMARK  140  A    between atoms: _319  and  _320
REMARK  141  A    between atoms: _323  and  _325
REMARK  142  A    between atoms: _325  and  _326
REMARK  143  A    between atoms: _325  and  _328
REMARK  144  A    between atoms: _328  and  _329
REMARK  145  A    between atoms: _331  and  _333
REMARK  146  A    between atoms: _333  and  _334
REMARK  147  A    between atoms: _333  and  _336
REMARK  148  A    between atoms: _336  and  _337
REMARK  149  A    between atoms: _340  and  _342
REMARK  150  A    between atoms: _342  and  _343
REMARK  151  A    between atoms: _342  and  _345
REMARK  152  A    between atoms: _345  and  _346
REMARK  153  A    between atoms: _351  and  _353
REMARK  154  A    between atoms: _353  and  _354
REMARK  155  A    between atoms: _357  and  _359
REMARK  156  A    between atoms: _359  and  _360
REMARK  157  A    between atoms: _359  and  _362
REMARK  158  A    between atoms: _362  and  _363
REMARK  159  A    between atoms: _366  and  _368
REMARK  160  A    between atoms: _368  and  _369
REMARK  161  A    between atoms: _372  and  _374
REMARK  162  A    between atoms: _374  and  _375
REMARK  163  A    between atoms: _377  and  _379
REMARK  164  A    between atoms: _379  and  _380
REMARK  165  A    between atoms: _379  and  _382
REMARK  166  A    between atoms: _382  and  _383
REMARK  167  A    between atoms: _385  and  _387
REMARK  168  A    between atoms: _387  and  _388
REMARK  169  A    between atoms: _387  and  _390
REMARK  170  A    between atoms: _390  and  _391
REMARK  171  A    between atoms: _397  and  _399
REMARK  172  A    between atoms: _399  and  _400
REMARK  173  A    between atoms: _399  and  _402
REMARK  174  A    between atoms: _402  and  _403
REMARK  175  A    between atoms: _406  and  _408
REMARK  176  A    between atoms: _408  and  _409
REMARK  177  A    between atoms: _408  and  _411
REMARK  178  A    between atoms: _411  and  _412
REMARK  179  A    between atoms: _415  and  _417
REMARK  180  A    between atoms: _417  and  _418
REMARK  181  A    between atoms: _417  and  _420
REMARK  182  A    between atoms: _420  and  _421
REMARK  183  A    between atoms: _423  and  _425
REMARK  184  A    between atoms: _425  and  _426
REMARK  185  A    between atoms: _425  and  _428
REMARK  186  A    between atoms: _428  and  _429
REMARK  187  A    between atoms: _432  and  _434
REMARK  188  A    between atoms: _434  and  _435
REMARK  189  A    between atoms: _434  and  _437
REMARK  190  A    between atoms: _437  and  _438
REMARK  191  A    between atoms: _441  and  _443
REMARK  192  A    between atoms: _443  and  _444
REMARK  193  A    between atoms: _443  and  _446
REMARK  194  A    between atoms: _446  and  _447
REMARK  195  A    between atoms: _449  and  _451
REMARK  196  A    between atoms: _451  and  _452
REMARK  197  A    between atoms: _455  and  _457
REMARK  198  A    between atoms: _457  and  _458
REMARK  199  A    between atoms: _457  and  _460
REMARK  200  A    between atoms: _460  and  _461
REMARK  201  A    between atoms: _467  and  _469
REMARK  202  A    between atoms: _469  and  _470
REMARK  203  A    between atoms: _469  and  _472
REMARK  204  A    between atoms: _472  and  _473
REMARK  205  A    between atoms: _476  and  _478
REMARK  206  A    between atoms: _478  and  _479
REMARK  207  A    between atoms: _478  and  _481
REMARK  208  A    between atoms: _481  and  _482
REMARK  209  A    between atoms: _487  and  _489
REMARK  210  A    between atoms: _489  and  _490
REMARK  211  A    between atoms: _489  and  _492
REMARK  212  A    between atoms: _492  and  _493
REMARK  213  A    between atoms: _499  and  _501
REMARK  214  A    between atoms: _501  and  _502
REMARK  215  A    between atoms: _501  and  _504
REMARK  216  A    between atoms: _504  and  _505
REMARK  217  A    between atoms: _509  and  _510
REMARK  218  A    between atoms: _515  and  _517
REMARK  219  A    between atoms: _517  and  _518
REMARK  220  A    between atoms: _517  and  _520
REMARK  221  A    between atoms: _520  and  _521
REMARK  222  A    between atoms: _521  and  _522
REMARK  223  A    between atoms: _525  and  _527
REMARK  224  A    between atoms: _527  and  _528
REMARK  225  A    between atoms: _527  and  _530
REMARK  226  A    between atoms: _530  and  _531
REMARK                            x       y       z     vdW  Elec       q    Type
REMARK                         _______ _______ _______ _____ _____    ______ ____
ROOT
ATOM      1  CA  LEU A   1      37.033  87.370  33.705  0.00  0.00    +0.133 C 
ENDROOT
BRANCH   1   2
ATOM      2  N   LEU A   1      37.929  88.384  33.130  0.00  0.00    -0.239 NA
ATOM      3  H   LEU A   1      38.706  88.093  32.503  0.00  0.00    +0.142 HD
ENDBRANCH   1   2
BRANCH   1   4
ATOM      4  C   LEU A   1      37.077  87.349  35.230  0.00  0.00    +0.224 C 
ATOM      5  O   LEU A   1      36.051  87.155  35.891  0.00  0.00    -0.287 OA
ENDBRANCH   1   4
BRANCH   1   6
ATOM      6  CB  LEU A   1      37.355  85.993  33.131  0.00  0.00    +0.025 C 
BRANCH   6   7
ATOM      7  CG  LEU A   1      37.170  85.863  31.618  0.00  0.00    +0.002 C 
ATOM      8  CD2 LEU A   1      35.740  86.193  31.214  0.00  0.00    +0.000 C 
ATOM      9  CD1 LEU A   1      37.556  84.477  31.133  0.00  0.00    +0.000 C 
ENDBRANCH   6   7
ENDBRANCH   1   6
TORSDOF 4
REMARK  Name = ../refined-set-2016/4wkp/4wkp_pocket.pdb
REMARK  226 active torsions:
REMARK  status: ('A' for Active; 'I' for Inactive)
REMARK    1  A    between atoms: _1  and  _3
REMARK    2  A    between atoms: _3  and  _4
REMARK    3  A    between atoms: _6  and  _8
REMARK    4  A    between atoms: _8  and  _9
REMARK    5  A    between atoms: _12  and  _14
REMARK    6  A    between atoms: _14  and  _15
REMARK    7  A    between atoms: _14  and  _17
REMARK    8  A    between atoms: _17  and  _18
REMARK    9  A    between atoms: _18  and  _19
REMARK   10  A    between atoms: _21  and  _23
REMARK   11  A    between atoms: _23  and  _24
REMARK   12  A    between atoms: _23  and  _26
REMARK   13  A    between atoms: _26  and  _27
REMARK   14  A    between atoms: _27  and  _28
REMARK   15  A    between atoms: _31  and  _33
REMARK   16  A    between atoms: _33  and  _34
REMARK   17  A    between atoms: _33  and  _36
REMARK   18  A    between atoms: _36  and  _37
REMARK   19  A    between atoms: _37  and  _38
REMARK   20  A    between atoms: _41  and  _43
REMARK   21  A    between atoms: _43  and  _44
REMARK   22  A    between atoms: _43  and  _46
REMARK   23  A    between atoms: _46  and  _47
REMARK   24  A    between atoms: _49  and  _51
REMARK   25  A    between atoms: _51  and  _52
REMARK   26  A    between atoms: _51  and  _54
REMARK   27  A    between atoms: _54  and  _55
REMARK   28  A    between atoms: _55  and  _56
REMARK   29  A    between atoms: _56  and  _57
REMARK   30  A    between atoms: _57  and  _58
REMARK   31  A    between atoms: _62  and  _64
REMARK   32  A    between atoms: _64  and  _65
REMARK   33  A    between atoms: _64  and  _67
REMARK   34  A    between atoms: _67  and  _68
REMARK   35  A    between atoms: _71  and  _73
REMARK   36  A    between atoms: _73  and  _74
REMARK   37  A    between atoms: _76  and  _78
REMARK   38  A    between atoms: _78  and  _79
REMARK   39  A    between atoms: _78  and  _81
REMARK   40  A    between atoms: _81  and  _82
REMARK   41  A    between atoms: _88  and  _90
REMARK   42  A    between atoms: _90  and  _91
REMARK   43  A    between atoms: _93  and  _95
REMARK   44  A    between atoms: _95  and  _96
REMARK   45  A    between atoms: _95  and  _98
REMARK   46  A    between atoms: _101  and  _103
REMARK   47  A    between atoms: _103  and  _104
REMARK   48  A    between atoms: _107  and  _109
REMARK   49  A    between atoms: _109  and  _110
REMARK   50  A    between atoms: _112  and  _114
REMARK   51  A    between atoms: _114  and  _115
REMARK   52  A    between atoms: _114  and  _117
REMARK   53  A    between atoms: _117  and  _118
REMARK   54  A    between atoms: _120  and  _122
REMARK   55  A    between atoms: _122  and  _123
REMARK   56  A    between atoms: _122  and  _125
REMARK   57  A    between atoms: _125  and  _126
REMARK   58  A    between atoms: _129  and  _131
REMARK   59  A    between atoms: _131  and  _132
REMARK   60  A    between atoms: _131  and  _134
REMARK   61  A    between atoms: _134  and  _135
REMARK   62  A    between atoms: _140  and  _142
REMARK   63  A    between atoms: _142  and  _143
REMARK   64  A    between atoms: _146  and  _148
REMARK   65  A    between atoms: _148  and  _149
REMARK   66  A    between atoms: _148  and  _151
REMARK   67  A    between atoms: _151  and  _152
REMARK   68  A    between atoms: _154  and  _156
REMARK   69  A    between atoms: _156  and  _157
REMARK   70  A    between atoms: _159  and  _161
REMARK   71  A    between atoms: _161  and  _162
REMARK   72  A    between atoms: _161  and  _164
REMARK   73  A    between atoms: _164  and  _165
REMARK   74  A    between atoms: _168  and  _170
REMARK   75  A    between atoms: _170  and  _171
REMARK   76  A    between atoms: _170  and  _173
REMARK   77  A    between atoms: _173  and  _174
REMARK   78  A    between atoms: _174  and  _175
REMARK   79  A    between atoms: _180  and  _182
REMARK   80  A    between atoms: _182  and  _183
REMARK   81  A    between atoms: _182  and  _185
REMARK   82  A    between atoms: _185  and  _186
REMARK   83  A    between atoms: _192  and  _194
REMARK   84  A    between atoms: _194  and  _195
REMARK   85  A    between atoms: _194  and  _197
REMARK   86  A    between atoms: _200  and  _202
REMARK   87  A    between atoms: _202  and  _203
REMARK   88  A    between atoms: _202  and  _205
REMARK   89  A    between atoms: _205  and  _206
REMARK   90  A    between atoms: _211  and  _213
REMARK   91  A    between atoms: _213  and  _214
REMARK   92  A    between atoms: _213  and  _216
REMARK   93  A    between atoms: _216  and  _217
REMARK   94  A    between atoms: _219  and  _221
REMARK   95  A    between atoms: _221  and  _222
REMARK   96  A    between atoms: _221  and  _224
REMARK   97  A    between atoms: _224  and  _225
REMARK   98  A    between atoms: _225  and  _226
REMARK   99  A    between atoms: _226  and  _227
REMARK  100  A    between atoms: _227  and  _228
REMARK  101  A    between atoms: _232  and  _234
REMARK  102  A    between atoms: _234  and  _235
REMARK  103  A    between atoms: _234  and  _237
REMARK  104  A    between atoms: _237  and  _238
REMARK  105  A    between atoms: _241  and  _243
REMARK  106  A    between atoms: _243  and  _244
REMARK  107  A    between atoms: _247  and  _249
REMARK  108  A    between atoms: _249  and  _250
REMARK  109  A    between atoms: _249  and  _252
REMARK  110  A    between atoms: _255  and  _257
REMARK  111  A    between atoms: _257  and  _258
REMARK  112  A    between atoms: _257  and  _260
REMARK  113  A    between atoms: _260  and  _261
REMARK  114  A    between atoms: _261  and  _262
REMARK  115  A    between atoms: _265  and  _267
REMARK  116  A    between atoms: _267  and  _268
REMARK  117  A    between atoms: _267  and  _270
REMARK  118  A    between atoms: _270  and  _271
REMARK  119  A    between atoms: _271  and  _272
REMARK  120  A    between atoms: _274  and  _276
REMARK  121  A    between atoms: _276  and  _277
REMARK  122  A    between atoms: _276  and  _279
REMARK  123  A    between atoms: _279  and  _280
REMARK  124  A    between atoms: _280  and  _281
REMARK  125  A    between atoms: _284  and  _286
REMARK  126  A    between atoms: _286  and  _287
REMARK  127  A    between atoms: _289  and  _291
REMARK  128  A    between atoms: _291  and  _292
REMARK  129  A    between atoms: _291  and  _294
REMARK  130  A    between atoms: _294  and  _295
REMARK  131  A    between atoms: _295  and  _296
REMARK  132  A    between atoms: _296  and  _297
REMARK  133  A    between atoms: _306  and  _308
REMARK  134  A    between atoms: _308  and  _309
REMARK  135  A    between atoms: _308  and  _311
REMARK  136  A    between atoms: _311  and  _312
REMARK  137  A    between atoms: _314  and  _316
REMARK  138  A    between atoms: _316  and  _317
REMARK  139  A    between atoms: _316  and  _319
REMARK  140  A    between atoms: _319  and  _320
REMARK  141  A    between atoms: _323  and  _325
REMARK  142  A    between atoms: _325  and  _326
REMARK  143  A    between atoms: _325  and  _328
REMARK  144  A    between atoms: _328  and  _329
REMARK  145  A    between atoms: _331  and  _333
REMARK  146  A    between atoms: _333  and  _334
REMARK  147  A    between atoms: _333  and  _336
REMARK  148  A    between atoms: _336  and  _337
REMARK  149  A    between atoms: _340  and  _342
REMARK  150  A    between atoms: _342  and  _343
REMARK  151  A    between atoms: _342  and  _345
REMARK  152  A    between atoms: _345  and  _346
REMARK  153  A    between atoms: _351  and  _353
REMARK  154  A    between atoms: _353  and  _354
REMARK  155  A    between atoms: _357  and  _359
REMARK  156  A    between atoms: _359  and  _360
REMARK  157  A    between atoms: _359  and  _362
REMARK  158  A    between atoms: _362  and  _363
REMARK  159  A    between atoms: _366  and  _368
REMARK  160  A    between atoms: _368  and  _369
REMARK  161  A    between atoms: _372  and  _374
REMARK  162  A    between atoms: _374  and  _375
REMARK  163  A    between atoms: _377  and  _379
REMARK  164  A    between atoms: _379  and  _380
REMARK  165  A    between atoms: _379  and  _382
REMARK  166  A    between atoms: _382  and  _383
REMARK  167  A    between atoms: _385  and  _387
REMARK  168  A    between atoms: _387  and  _388
REMARK  169  A    between atoms: _387  and  _390
REMARK  170  A    between atoms: _390  and  _391
REMARK  171  A    between atoms: _397  and  _399
REMARK  172  A    between atoms: _399  and  _400
REMARK  173  A    between atoms: _399  and  _402
REMARK  174  A    between atoms: _402  and  _403
REMARK  175  A    between atoms: _406  and  _408
REMARK  176  A    between atoms: _408  and  _409
REMARK  177  A    between atoms: _408  and  _411
REMARK  178  A    between atoms: _411  and  _412
REMARK  179  A    between atoms: _415  and  _417
REMARK  180  A    between atoms: _417  and  _418
REMARK  181  A    between atoms: _417  and  _420
REMARK  182  A    between atoms: _420  and  _421
REMARK  183  A    between atoms: _423  and  _425
REMARK  184  A    between atoms: _425  and  _426
REMARK  185  A    between atoms: _425  and  _428
REMARK  186  A    between atoms: _428  and  _429
REMARK  187  A    between atoms: _432  and  _434
REMARK  188  A    between atoms: _434  and  _435
REMARK  189  A    between atoms: _434  and  _437
REMARK  190  A    between atoms: _437  and  _438
REMARK  191  A    between atoms: _441  and  _443
REMARK  192  A    between atoms: _443  and  _444
REMARK  193  A    between atoms: _443  and  _446
REMARK  194  A    between atoms: _446  and  _447
REMARK  195  A    between atoms: _449  and  _451
REMARK  196  A    between atoms: _451  and  _452
REMARK  197  A    between atoms: _455  and  _457
REMARK  198  A    between atoms: _457  and  _458
REMARK  199  A    between atoms: _457  and  _460
REMARK  200  A    between atoms: _460  and  _461
REMARK  201  A    between atoms: _467  and  _469
REMARK  202  A    between atoms: _469  and  _470
REMARK  203  A    between atoms: _469  and  _472
REMARK  204  A    between atoms: _472  and  _473
REMARK  205  A    between atoms: _476  and  _478
REMARK  206  A    between atoms: _478  and  _479
REMARK  207  A    between atoms: _478  and  _481
REMARK  208  A    between atoms: _481  and  _482
REMARK  209  A    between atoms: _487  and  _489
REMARK  210  A    between atoms: _489  and  _490
REMARK  211  A    between atoms: _489  and  _492
REMARK  212  A    between atoms: _492  and  _493
REMARK  213  A    between atoms: _499  and  _501
REMARK  214  A    between atoms: _501  and  _502
REMARK  215  A    between atoms: _501  and  _504
REMARK  216  A    between atoms: _504  and  _505
REMARK  217  A    between atoms: _509  and  _510
REMARK  218  A    between atoms: _515  and  _517
REMARK  219  A    between atoms: _517  and  _518
REMARK  220  A    between atoms: _517  and  _520
REMARK  221  A    between atoms: _520  and  _521
REMARK  222  A    between atoms: _521  and  _522
REMARK  223  A    between atoms: _525  and  _527
REMARK  224  A    between atoms: _527  and  _528
REMARK  225  A    between atoms: _527  and  _530
REMARK  226  A    between atoms: _530  and  _531
REMARK                            x       y       z     vdW  Elec       q    Type
REMARK                         _______ _______ _______ _____ _____    ______ ____
ROOT
ATOM      1  C   GLU A   3      34.016  77.760  28.006  0.00  0.00    +0.241 C 
ATOM      2  O   GLU A   3      33.860  78.983  27.956  0.00  0.00    -0.273 OA
ATOM      3  N   MET A   4      33.371  76.928  27.182  0.00  0.00    -0.297 N 
ATOM      4  H   MET A   4      33.471  75.900  27.302  0.00  0.00    +0.150 HD
ENDROOT
BRANCH   3   5
ATOM      5  CA  MET A   4      32.523  77.460  26.110  0.00  0.00    +0.149 C 
BRANCH   5   6
ATOM      6  C   MET A   4      31.093  76.895  26.097  0.00  0.00    +0.241 C 
ATOM      7  N   GLU A   5      30.675  76.210  27.158  0.00  0.00    -0.297 N 
ATOM      8  H   GLU A   5      31.272  76.175  28.009  0.00  0.00    +0.150 HD
ATOM      9  O   MET A   4      30.370  77.072  25.125  0.00  0.00    -0.273 OA
BRANCH   7  10
ATOM     10  CA  GLU A   5      29.384  75.499  27.153  0.00  0.00    +0.149 C 
BRANCH  10  11
ATOM     11  C   GLU A   5      28.651  75.442  28.485  0.00  0.00    +0.241 C 
ATOM     12  N   GLY A   6      29.360  75.582  29.593  0.00  0.00    -0.296 N 
ATOM     13  H   GLY A   6      30.361  75.861  29.547  0.00  0.00    +0.150 HD
ATOM     14  O   GLU A   5      27.446  75.193  28.519  0.00  0.00    -0.273 OA
BRANCH  12  15
ATOM     15  CA  GLY A   6      28.710  75.336  30.894  0.00  0.00    +0.163 C 
BRANCH  15  16
ATOM     16  C   GLY A   6      27.510  76.238  31.120  0.00  0.00    +0.229 C 
ATOM     17  O   GLY A   6      26.440  75.795  31.573  0.00  0.00    -0.286 OA
ENDBRANCH  15  16
ENDBRANCH  12  15
ENDBRANCH  10  11
BRANCH  10  18
ATOM     18  CB  GLU A   5      29.586  74.041  26.738  0.00  0.00    +0.041 C 
BRANCH  18  19
ATOM     19  CG  GLU A   5      30.205  73.822  25.372  0.00  0.00    +0.116 C 
BRANCH  19  20
ATOM     20  CD  GLU A   5      31.724  73.918  25.344  0.00  0.00    +0.365 C 
ATOM     21  OE2 GLU A   5      32.418  73.911  26.422  0.00  0.00    -0.246 OA
ATOM     22  OE1 GLU A   5      32.260  74.025  24.213  0.00  0.00    -0.246 OA
ENDBRANCH  19  20
ENDBRANCH  18  19
ENDBRANCH  10  18
ENDBRANCH   7  10
ENDBRANCH   5   6
BRANCH   5  23
ATOM     23  CB  MET A   4      33.226  77.236  24.759  0.00  0.00    +0.041 C 
BRANCH  23  24
ATOM     24  CG  MET A   4      34.591  77.901  24.674  0.00  0.00    +0.060 C 
BRANCH  24  25
ATOM     25  SD  MET A   4      35.443  77.555  23.117  0.00  0.00    -0.139 S 
ATOM     26  CE  MET A   4      34.436  78.472  21.979  0.00  0.00    +0.069 C 
ENDBRANCH  24  25
ENDBRANCH  23  24
ENDBRANCH   5  23
ENDBRANCH   3   5
BRANCH   1  27
ATOM     27  CA  GLU A   3      35.054  77.193  28.975  0.00  0.00    +0.149 C 
BRANCH  27  30
ATOM     28  C   VAL A   2      36.487  78.212  30.645  0.00  0.00    +0.241 C 
ATOM     29  O   VAL A   2      37.347  77.343  30.508  0.00  0.00    -0.273 OA
ATOM     30  N   GLU A   3      35.325  78.182  29.997  0.00  0.00    -0.297 N 
ATOM     31  H   GLU A   3      34.595  78.885  30.230  0.00  0.00    +0.150 HD
BRANCH  28  32
ATOM     32  CA  VAL A   2      36.697  79.390  31.584  0.00  0.00    +0.148 C 
BRANCH  32  35
ATOM     33  C   ALA A   1      36.839  79.261  34.026  0.00  0.00    +0.238 C 
ATOM     34  O   ALA A   1      35.817  79.940  34.206  0.00  0.00    -0.274 OA
ATOM     35  N   VAL A   2      37.324  78.937  32.831  0.00  0.00    -0.297 N 
ATOM     36  H   VAL A   2      38.176  78.343  32.778  0.00  0.00    +0.150 HD
BRANCH  33  37
ATOM     37  CA  ALA A   1      37.639  78.746  35.212  0.00  0.00    +0.145 C 
ATOM     38  CB  ALA A   1      37.395  77.260  35.431  0.00  0.00    +0.028 C 
BRANCH  37  39
ATOM     39  N   ALA A   1      37.303  79.493  36.411  0.00  0.00    -0.238 NA
ATOM     40  H   ALA A   1      36.346  79.888  36.507  0.00  0.00    +0.142 HD
ENDBRANCH  37  39
ENDBRANCH  33  37
ENDBRANCH  32  35
BRANCH  32  41
ATOM     41  CB  VAL A   2      37.505  80.535  30.928  0.00  0.00    +0.027 C 
ATOM     42  CG2 VAL A   2      38.913  80.074  30.565  0.00  0.00    +0.002 C 
ATOM     43  CG1 VAL A   2      36.768  81.108  29.713  0.00  0.00    +0.002 C 
ENDBRANCH  32  41
ENDBRANCH  28  32
ENDBRANCH  27  30
BRANCH  27  44
ATOM     44  CB  GLU A   3      34.714  75.827  29.590  0.00  0.00    +0.041 C 
BRANCH  44  45
ATOM     45  CG  GLU A   3      33.992  75.837  30.924  0.00  0.00    +0.116 C 
BRANCH  45  46
ATOM     46  CD  GLU A   3      32.492  75.862  30.774  0.00  0.00    +0.365 C 
ATOM     47  OE2 GLU A   3      31.810  75.101  31.510  0.00  0.00    -0.246 OA
ATOM     48  OE1 GLU A   3      31.987  76.620  29.922  0.00  0.00    -0.246 OA
ENDBRANCH  45  46
ENDBRANCH  44  45
ENDBRANCH  27  44
ENDBRANCH   1  27
TORSDOF 22
REMARK  Name = ../refined-set-2016/4wkp/4wkp_pocket.pdb
REMARK  226 active torsions:
REMARK  status: ('A' for Active; 'I' for Inactive)
REMARK    1  A    between atoms: _1  and  _3
REMARK    2  A    between atoms: _3  and  _4
REMARK    3  A    between atoms: _6  and  _8
REMARK    4  A    between atoms: _8  and  _9
REMARK    5  A    between atoms: _12  and  _14
REMARK    6  A    between atoms: _14  and  _15
REMARK    7  A    between atoms: _14  and  _17
REMARK    8  A    between atoms: _17  and  _18
REMARK    9  A    between atoms: _18  and  _19
REMARK   10  A    between atoms: _21  and  _23
REMARK   11  A    between atoms: _23  and  _24
REMARK   12  A    between atoms: _23  and  _26
REMARK   13  A    between atoms: _26  and  _27
REMARK   14  A    between atoms: _27  and  _28
REMARK   15  A    between atoms: _31  and  _33
REMARK   16  A    between atoms: _33  and  _34
REMARK   17  A    between atoms: _33  and  _36
REMARK   18  A    between atoms: _36  and  _37
REMARK   19  A    between atoms: _37  and  _38
REMARK   20  A    between atoms: _41  and  _43
REMARK   21  A    between atoms: _43  and  _44
REMARK   22  A    between atoms: _43  and  _46
REMARK   23  A    between atoms: _46  and  _47
REMARK   24  A    between atoms: _49  and  _51
REMARK   25  A    between atoms: _51  and  _52
REMARK   26  A    between atoms: _51  and  _54
REMARK   27  A    between atoms: _54  and  _55
REMARK   28  A    between atoms: _55  and  _56
REMARK   29  A    between atoms: _56  and  _57
REMARK   30  A    between atoms: _57  and  _58
REMARK   31  A    between atoms: _62  and  _64
REMARK   32  A    between atoms: _64  and  _65
REMARK   33  A    between atoms: _64  and  _67
REMARK   34  A    between atoms: _67  and  _68
REMARK   35  A    between atoms: _71  and  _73
REMARK   36  A    between atoms: _73  and  _74
REMARK   37  A    between atoms: _76  and  _78
REMARK   38  A    between atoms: _78  and  _79
REMARK   39  A    between atoms: _78  and  _81
REMARK   40  A    between atoms: _81  and  _82
REMARK   41  A    between atoms: _88  and  _90
REMARK   42  A    between atoms: _90  and  _91
REMARK   43  A    between atoms: _93  and  _95
REMARK   44  A    between atoms: _95  and  _96
REMARK   45  A    between atoms: _95  and  _98
REMARK   46  A    between atoms: _101  and  _103
REMARK   47  A    between atoms: _103  and  _104
REMARK   48  A    between atoms: _107  and  _109
REMARK   49  A    between atoms: _109  and  _110
REMARK   50  A    between atoms: _112  and  _114
REMARK   51  A    between atoms: _114  and  _115
REMARK   52  A    between atoms: _114  and  _117
REMARK   53  A    between atoms: _117  and  _118
REMARK   54  A    between atoms: _120  and  _122
REMARK   55  A    between atoms: _122  and  _123
REMARK   56  A    between atoms: _122  and  _125
REMARK   57  A    between atoms: _125  and  _126
REMARK   58  A    between atoms: _129  and  _131
REMARK   59  A    between atoms: _131  and  _132
REMARK   60  A    between atoms: _131  and  _134
REMARK   61  A    between atoms: _134  and  _135
REMARK   62  A    between atoms: _140  and  _142
REMARK   63  A    between atoms: _142  and  _143
REMARK   64  A    between atoms: _146  and  _148
REMARK   65  A    between atoms: _148  and  _149
REMARK   66  A    between atoms: _148  and  _151
REMARK   67  A    between atoms: _151  and  _152
REMARK   68  A    between atoms: _154  and  _156
REMARK   69  A    between atoms: _156  and  _157
REMARK   70  A    between atoms: _159  and  _161
REMARK   71  A    between atoms: _161  and  _162
REMARK   72  A    between atoms: _161  and  _164
REMARK   73  A    between atoms: _164  and  _165
REMARK   74  A    between atoms: _168  and  _170
REMARK   75  A    between atoms: _170  and  _171
REMARK   76  A    between atoms: _170  and  _173
REMARK   77  A    between atoms: _173  and  _174
REMARK   78  A    between atoms: _174  and  _175
REMARK   79  A    between atoms: _180  and  _182
REMARK   80  A    between atoms: _182  and  _183
REMARK   81  A    between atoms: _182  and  _185
REMARK   82  A    between atoms: _185  and  _186
REMARK   83  A    between atoms: _192  and  _194
REMARK   84  A    between atoms: _194  and  _195
REMARK   85  A    between atoms: _194  and  _197
REMARK   86  A    between atoms: _200  and  _202
REMARK   87  A    between atoms: _202  and  _203
REMARK   88  A    between atoms: _202  and  _205
REMARK   89  A    between atoms: _205  and  _206
REMARK   90  A    between atoms: _211  and  _213
REMARK   91  A    between atoms: _213  and  _214
REMARK   92  A    between atoms: _213  and  _216
REMARK   93  A    between atoms: _216  and  _217
REMARK   94  A    between atoms: _219  and  _221
REMARK   95  A    between atoms: _221  and  _222
REMARK   96  A    between atoms: _221  and  _224
REMARK   97  A    between atoms: _224  and  _225
REMARK   98  A    between atoms: _225  and  _226
REMARK   99  A    between atoms: _226  and  _227
REMARK  100  A    between atoms: _227  and  _228
REMARK  101  A    between atoms: _232  and  _234
REMARK  102  A    between atoms: _234  and  _235
REMARK  103  A    between atoms: _234  and  _237
REMARK  104  A    between atoms: _237  and  _238
REMARK  105  A    between atoms: _241  and  _243
REMARK  106  A    between atoms: _243  and  _244
REMARK  107  A    between atoms: _247  and  _249
REMARK  108  A    between atoms: _249  and  _250
REMARK  109  A    between atoms: _249  and  _252
REMARK  110  A    between atoms: _255  and  _257
REMARK  111  A    between atoms: _257  and  _258
REMARK  112  A    between atoms: _257  and  _260
REMARK  113  A    between atoms: _260  and  _261
REMARK  114  A    between atoms: _261  and  _262
REMARK  115  A    between atoms: _265  and  _267
REMARK  116  A    between atoms: _267  and  _268
REMARK  117  A    between atoms: _267  and  _270
REMARK  118  A    between atoms: _270  and  _271
REMARK  119  A    between atoms: _271  and  _272
REMARK  120  A    between atoms: _274  and  _276
REMARK  121  A    between atoms: _276  and  _277
REMARK  122  A    between atoms: _276  and  _279
REMARK  123  A    between atoms: _279  and  _280
REMARK  124  A    between atoms: _280  and  _281
REMARK  125  A    between atoms: _284  and  _286
REMARK  126  A    between atoms: _286  and  _287
REMARK  127  A    between atoms: _289  and  _291
REMARK  128  A    between atoms: _291  and  _292
REMARK  129  A    between atoms: _291  and  _294
REMARK  130  A    between atoms: _294  and  _295
REMARK  131  A    between atoms: _295  and  _296
REMARK  132  A    between atoms: _296  and  _297
REMARK  133  A    between atoms: _306  and  _308
REMARK  134  A    between atoms: _308  and  _309
REMARK  135  A    between atoms: _308  and  _311
REMARK  136  A    between atoms: _311  and  _312
REMARK  137  A    between atoms: _314  and  _316
REMARK  138  A    between atoms: _316  and  _317
REMARK  139  A    between atoms: _316  and  _319
REMARK  140  A    between atoms: _319  and  _320
REMARK  141  A    between atoms: _323  and  _325
REMARK  142  A    between atoms: _325  and  _326
REMARK  143  A    between atoms: _325  and  _328
REMARK  144  A    between atoms: _328  and  _329
REMARK  145  A    between atoms: _331  and  _333
REMARK  146  A    between atoms: _333  and  _334
REMARK  147  A    between atoms: _333  and  _336
REMARK  148  A    between atoms: _336  and  _337
REMARK  149  A    between atoms: _340  and  _342
REMARK  150  A    between atoms: _342  and  _343
REMARK  151  A    between atoms: _342  and  _345
REMARK  152  A    between atoms: _345  and  _346
REMARK  153  A    between atoms: _351  and  _353
REMARK  154  A    between atoms: _353  and  _354
REMARK  155  A    between atoms: _357  and  _359
REMARK  156  A    between atoms: _359  and  _360
REMARK  157  A    between atoms: _359  and  _362
REMARK  158  A    between atoms: _362  and  _363
REMARK  159  A    between atoms: _366  and  _368
REMARK  160  A    between atoms: _368  and  _369
REMARK  161  A    between atoms: _372  and  _374
REMARK  162  A    between atoms: _374  and  _375
REMARK  163  A    between atoms: _377  and  _379
REMARK  164  A    between atoms: _379  and  _380
REMARK  165  A    between atoms: _379  and  _382
REMARK  166  A    between atoms: _382  and  _383
REMARK  167  A    between atoms: _385  and  _387
REMARK  168  A    between atoms: _387  and  _388
REMARK  169  A    between atoms: _387  and  _390
REMARK  170  A    between atoms: _390  and  _391
REMARK  171  A    between atoms: _397  and  _399
REMARK  172  A    between atoms: _399  and  _400
REMARK  173  A    between atoms: _399  and  _402
REMARK  174  A    between atoms: _402  and  _403
REMARK  175  A    between atoms: _406  and  _408
REMARK  176  A    between atoms: _408  and  _409
REMARK  177  A    between atoms: _408  and  _411
REMARK  178  A    between atoms: _411  and  _412
REMARK  179  A    between atoms: _415  and  _417
REMARK  180  A    between atoms: _417  and  _418
REMARK  181  A    between atoms: _417  and  _420
REMARK  182  A    between atoms: _420  and  _421
REMARK  183  A    between atoms: _423  and  _425
REMARK  184  A    between atoms: _425  and  _426
REMARK  185  A    between atoms: _425  and  _428
REMARK  186  A    between atoms: _428  and  _429
REMARK  187  A    between atoms: _432  and  _434
REMARK  188  A    between atoms: _434  and  _435
REMARK  189  A    between atoms: _434  and  _437
REMARK  190  A    between atoms: _437  and  _438
REMARK  191  A    between atoms: _441  and  _443
REMARK  192  A    between atoms: _443  and  _444
REMARK  193  A    between atoms: _443  and  _446
REMARK  194  A    between atoms: _446  and  _447
REMARK  195  A    between atoms: _449  and  _451
REMARK  196  A    between atoms: _451  and  _452
REMARK  197  A    between atoms: _455  and  _457
REMARK  198  A    between atoms: _457  and  _458
REMARK  199  A    between atoms: _457  and  _460
REMARK  200  A    between atoms: _460  and  _461
REMARK  201  A    between atoms: _467  and  _469
REMARK  202  A    between atoms: _469  and  _470
REMARK  203  A    between atoms: _469  and  _472
REMARK  204  A    between atoms: _472  and  _473
REMARK  205  A    between atoms: _476  and  _478
REMARK  206  A    between atoms: _478  and  _479
REMARK  207  A    between atoms: _478  and  _481
REMARK  208  A    between atoms: _481  and  _482
REMARK  209  A    between atoms: _487  and  _489
REMARK  210  A    between atoms: _489  and  _490
REMARK  211  A    between atoms: _489  and  _492
REMARK  212  A    between atoms: _492  and  _493
REMARK  213  A    between atoms: _499  and  _501
REMARK  214  A    between atoms: _501  and  _502
REMARK  215  A    between atoms: _501  and  _504
REMARK  216  A    between atoms: _504  and  _505
REMARK  217  A    between atoms: _509  and  _510
REMARK  218  A    between atoms: _515  and  _517
REMARK  219  A    between atoms: _517  and  _518
REMARK  220  A    between atoms: _517  and  _520
REMARK  221  A    between atoms: _520  and  _521
REMARK  222  A    between atoms: _521  and  _522
REMARK  223  A    between atoms: _525  and  _527
REMARK  224  A    between atoms: _527  and  _528
REMARK  225  A    between atoms: _527  and  _530
REMARK  226  A    between atoms: _530  and  _531
REMARK                            x       y       z     vdW  Elec       q    Type
REMARK                         _______ _______ _______ _____ _____    ______ ____
ROOT
ATOM      1  CA  SER A   4      43.447  71.369  30.761  0.00  0.00    +0.178 C 
ENDROOT
BRANCH   1   2
ATOM      2  C   SER A   4      44.549  72.353  30.412  0.00  0.00    +0.243 C 
ATOM      3  N   ASP A   5      44.419  73.587  30.889  0.00  0.00    -0.296 N 
ATOM      4  H   ASP A   5      43.654  73.784  31.566  0.00  0.00    +0.150 HD
ATOM      5  O   SER A   4      45.500  71.991  29.720  0.00  0.00    -0.273 OA
BRANCH   3   6
ATOM      6  CA  ASP A   5      45.307  74.672  30.499  0.00  0.00    +0.160 C 
BRANCH   6   7
ATOM      7  C   ASP A   5      45.039  75.863  31.400  0.00  0.00    +0.241 C 
ATOM      8  O   ASP A   5      44.071  75.875  32.182  0.00  0.00    -0.273 OA
ATOM      9  N   ASN A   6      45.871  76.886  31.248  0.00  0.00    -0.297 N 
ATOM     10  H   ASN A   6      46.614  76.818  30.523  0.00  0.00    +0.150 HD
BRANCH   9  11
ATOM     11  CA  ASN A   6      45.791  78.095  32.047  0.00  0.00    +0.158 C 
BRANCH  11  12
ATOM     12  C   ASN A   6      45.242  79.318  31.305  0.00  0.00    +0.241 C 
ATOM     13  O   ASN A   6      45.413  80.447  31.777  0.00  0.00    -0.273 OA
ATOM     14  N   ALA A   7      44.614  79.098  30.143  0.00  0.00    -0.297 N 
ATOM     15  H   ALA A   7      44.643  78.141  29.737  0.00  0.00    +0.150 HD
BRANCH  14  16
ATOM     16  CA  ALA A   7      43.887  80.144  29.417  0.00  0.00    +0.149 C 
ATOM     17  CB  ALA A   7      42.670  80.588  30.225  0.00  0.00    +0.031 C 
BRANCH  16  18
ATOM     18  C   ALA A   7      44.767  81.344  29.045  0.00  0.00    +0.241 C 
ATOM     19  O   ALA A   7      44.273  82.479  28.897  0.00  0.00    -0.273 OA
ATOM     20  N   ASP A   8      46.049  81.052  28.842  0.00  0.00    -0.298 N 
ATOM     21  H   ASP A   8      46.341  80.055  28.880  0.00  0.00    +0.150 HD
BRANCH  20  22
ATOM     22  CA  ASP A   8      47.058  82.056  28.571  0.00  0.00    +0.148 C 
BRANCH  22  23
ATOM     23  C   ASP A   8      47.639  81.788  27.201  0.00  0.00    +0.227 C 
ATOM     24  O   ASP A   8      47.073  81.046  26.396  0.00  0.00    -0.286 OA
ENDBRANCH  22  23
BRANCH  22  25
ATOM     25  CB  ASP A   8      48.127  82.052  29.674  0.00  0.00    +0.142 C 
BRANCH  25  26
ATOM     26  CG  ASP A   8      48.837  80.713  29.814  0.00  0.00    +0.367 C 
ATOM     27  OD2 ASP A   8      49.670  80.608  30.727  0.00  0.00    -0.246 OA
ATOM     28  OD1 ASP A   8      48.554  79.763  29.043  0.00  0.00    -0.246 OA
ENDBRANCH  25  26
ENDBRANCH  22  25
ENDBRANCH  20  22
ENDBRANCH  16  18
ENDBRANCH  14  16
ENDBRANCH  11  12
BRANCH  11  29
ATOM     29  CB  ASN A   6      47.183  78.412  32.600  0.00  0.00    +0.114 C 
BRANCH  29  30
ATOM     30  CG  ASN A   6      47.662  77.359  33.560  0.00  0.00    +0.222 C 
ATOM     31  ND2 ASN A   6      46.852  77.081  34.559  0.00  0.00    -0.329 N 
ATOM     32 HD21 ASN A   6      47.118  76.359  35.259  0.00  0.00    +0.145 HD
ATOM     33 HD22 ASN A   6      45.945  77.583  34.649  0.00  0.00    +0.145 HD
ATOM     34  OD1 ASN A   6      48.747  76.797  33.404  0.00  0.00    -0.275 OA
ENDBRANCH  29  30
ENDBRANCH  11  29
ENDBRANCH   9  11
ENDBRANCH   6   7
BRANCH   6  35
ATOM     35  CB  ASP A   5      45.089  75.071  29.029  0.00  0.00    +0.143 C 
BRANCH  35  36
ATOM     36  CG  ASP A   5      43.680  75.539  28.751  0.00  0.00    +0.367 C 
ATOM     37  OD2 ASP A   5      43.423  76.746  28.859  0.00  0.00    -0.246 OA
ATOM     38  OD1 ASP A   5      42.830  74.698  28.389  0.00  0.00    -0.246 OA
ENDBRANCH  35  36
ENDBRANCH   6  35
ENDBRANCH   3   6
ENDBRANCH   1   2
BRANCH   1  41
ATOM     39  C   ILE A   3      42.580  71.207  33.057  0.00  0.00    +0.241 C 
ATOM     40  O   ILE A   3      43.304  70.228  33.318  0.00  0.00    -0.273 OA
ATOM     41  N   SER A   4      42.562  71.798  31.863  0.00  0.00    -0.295 N 
ATOM     42  H   SER A   4      41.904  72.587  31.702  0.00  0.00    +0.150 HD
BRANCH  39  43
ATOM     43  CA  ILE A   3      41.654  71.811  34.131  0.00  0.00    +0.149 C 
BRANCH  43  45
ATOM     44  C   SER A   2      39.850  70.197  34.135  0.00  0.00    +0.243 C 
ATOM     45  N   ILE A   3      40.818  70.808  34.794  0.00  0.00    -0.297 N 
ATOM     46  H   ILE A   3      40.988  70.575  35.793  0.00  0.00    +0.150 HD
ATOM     47  O   SER A   2      39.668  70.358  32.929  0.00  0.00    -0.273 OA
BRANCH  44  48
ATOM     48  CA  SER A   2      38.973  69.255  34.955  0.00  0.00    +0.178 C 
BRANCH  48  51
ATOM     49  C   ARG A   1      36.680  70.052  35.388  0.00  0.00    +0.238 C 
ATOM     50  O   ARG A   1      36.882  70.263  36.580  0.00  0.00    -0.274 OA
ATOM     51  N   SER A   2      37.567  69.460  34.580  0.00  0.00    -0.295 N 
ATOM     52  H   SER A   2      37.248  69.131  33.647  0.00  0.00    +0.150 HD
BRANCH  49  53
ATOM     53  CA  ARG A   1      35.357  70.442  34.756  0.00  0.00    +0.145 C 
BRANCH  53  54
ATOM     54  N   ARG A   1      34.249  70.280  35.697  0.00  0.00    -0.238 NA
ATOM     55  H   ARG A   1      34.358  70.619  36.674  0.00  0.00    +0.142 HD
ENDBRANCH  53  54
BRANCH  53  56
ATOM     56  CB  ARG A   1      35.435  71.889  34.257  0.00  0.00    +0.030 C 
BRANCH  56  57
ATOM     57  CG  ARG A   1      34.211  72.354  33.475  0.00  0.00    +0.045 C 
BRANCH  57  58
ATOM     58  CD  ARG A   1      34.169  71.830  32.055  0.00  0.00    +0.174 C 
BRANCH  58  59
ATOM     59  NE  ARG A   1      33.208  72.586  31.242  0.00  0.00    -0.265 N 
ATOM     60  HE  ARG A   1      32.523  73.183  31.748  0.00  0.00    +0.259 HD
ATOM     61  CZ  ARG A   1      33.138  72.572  29.910  0.00  0.00    +0.342 C 
ATOM     62  NH2 ARG A   1      32.194  73.276  29.270  0.00  0.00    -0.292 N 
ATOM     63 HH21 ARG A   1      31.508  73.839  29.812  0.00  0.00    +0.255 HD
ATOM     64 HH22 ARG A   1      32.147  73.259  28.231  0.00  0.00    +0.255 HD
ATOM     65  NH1 ARG A   1      33.962  71.839  29.189  0.00  0.00    -0.292 N 
ATOM     66 HH11 ARG A   1      34.685  71.256  29.657  0.00  0.00    +0.255 HD
ATOM     67 HH12 ARG A   1      33.889  71.843  28.152  0.00  0.00    +0.255 HD
ENDBRANCH  58  59
ENDBRANCH  57  58
ENDBRANCH  56  57
ENDBRANCH  53  56
ENDBRANCH  49  53
ENDBRANCH  48  51
BRANCH  48  68
ATOM     68  CB  SER A   2      39.394  67.803  34.713  0.00  0.00    +0.166 C 
BRANCH  68  69
ATOM     69  OG  SER A   2      40.786  67.606  34.976  0.00  0.00    -0.380 OA
ATOM     70  H   SER A   2      40.978  67.834  35.920  0.00  0.00    +0.211 HD
ENDBRANCH  68  69
ENDBRANCH  48  68
ENDBRANCH  44  48
ENDBRANCH  43  45
BRANCH  43  71
ATOM     71  CB  ILE A   3      42.494  72.581  35.166  0.00  0.00    +0.027 C 
ATOM     72  CG2 ILE A   3      43.413  73.591  34.503  0.00  0.00    +0.002 C 
BRANCH  71  73
ATOM     73  CG1 ILE A   3      41.591  73.254  36.217  0.00  0.00    +0.002 C 
ATOM     74  CD1 ILE A   3      40.529  74.183  35.638  0.00  0.00    +0.000 C 
ENDBRANCH  71  73
ENDBRANCH  43  71
ENDBRANCH  39  43
ENDBRANCH   1  41
BRANCH   1  75
ATOM     75  CB  SER A   4      42.633  71.081  29.499  0.00  0.00    +0.166 C 
BRANCH  75  76
ATOM     76  OG  SER A   4      41.833  72.204  29.155  0.00  0.00    -0.380 OA
ATOM     77  H   SER A   4      42.417  72.986  28.990  0.00  0.00    +0.211 HD
ENDBRANCH  75  76
ENDBRANCH   1  75
TORSDOF 32
REMARK  Name = ../refined-set-2016/4wkp/4wkp_pocket.pdb
REMARK  226 active torsions:
REMARK  status: ('A' for Active; 'I' for Inactive)
REMARK    1  A    between atoms: _1  and  _3
REMARK    2  A    between atoms: _3  and  _4
REMARK    3  A    between atoms: _6  and  _8
REMARK    4  A    between atoms: _8  and  _9
REMARK    5  A    between atoms: _12  and  _14
REMARK    6  A    between atoms: _14  and  _15
REMARK    7  A    between atoms: _14  and  _17
REMARK    8  A    between atoms: _17  and  _18
REMARK    9  A    between atoms: _18  and  _19
REMARK   10  A    between atoms: _21  and  _23
REMARK   11  A    between atoms: _23  and  _24
REMARK   12  A    between atoms: _23  and  _26
REMARK   13  A    between atoms: _26  and  _27
REMARK   14  A    between atoms: _27  and  _28
REMARK   15  A    between atoms: _31  and  _33
REMARK   16  A    between atoms: _33  and  _34
REMARK   17  A    between atoms: _33  and  _36
REMARK   18  A    between atoms: _36  and  _37
REMARK   19  A    between atoms: _37  and  _38
REMARK   20  A    between atoms: _41  and  _43
REMARK   21  A    between atoms: _43  and  _44
REMARK   22  A    between atoms: _43  and  _46
REMARK   23  A    between atoms: _46  and  _47
REMARK   24  A    between atoms: _49  and  _51
REMARK   25  A    between atoms: _51  and  _52
REMARK   26  A    between atoms: _51  and  _54
REMARK   27  A    between atoms: _54  and  _55
REMARK   28  A    between atoms: _55  and  _56
REMARK   29  A    between atoms: _56  and  _57
REMARK   30  A    between atoms: _57  and  _58
REMARK   31  A    between atoms: _62  and  _64
REMARK   32  A    between atoms: _64  and  _65
REMARK   33  A    between atoms: _64  and  _67
REMARK   34  A    between atoms: _67  and  _68
REMARK   35  A    between atoms: _71  and  _73
REMARK   36  A    between atoms: _73  and  _74
REMARK   37  A    between atoms: _76  and  _78
REMARK   38  A    between atoms: _78  and  _79
REMARK   39  A    between atoms: _78  and  _81
REMARK   40  A    between atoms: _81  and  _82
REMARK   41  A    between atoms: _88  and  _90
REMARK   42  A    between atoms: _90  and  _91
REMARK   43  A    between atoms: _93  and  _95
REMARK   44  A    between atoms: _95  and  _96
REMARK   45  A    between atoms: _95  and  _98
REMARK   46  A    between atoms: _101  and  _103
REMARK   47  A    between atoms: _103  and  _104
REMARK   48  A    between atoms: _107  and  _109
REMARK   49  A    between atoms: _109  and  _110
REMARK   50  A    between atoms: _112  and  _114
REMARK   51  A    between atoms: _114  and  _115
REMARK   52  A    between atoms: _114  and  _117
REMARK   53  A    between atoms: _117  and  _118
REMARK   54  A    between atoms: _120  and  _122
REMARK   55  A    between atoms: _122  and  _123
REMARK   56  A    between atoms: _122  and  _125
REMARK   57  A    between atoms: _125  and  _126
REMARK   58  A    between atoms: _129  and  _131
REMARK   59  A    between atoms: _131  and  _132
REMARK   60  A    between atoms: _131  and  _134
REMARK   61  A    between atoms: _134  and  _135
REMARK   62  A    between atoms: _140  and  _142
REMARK   63  A    between atoms: _142  and  _143
REMARK   64  A    between atoms: _146  and  _148
REMARK   65  A    between atoms: _148  and  _149
REMARK   66  A    between atoms: _148  and  _151
REMARK   67  A    between atoms: _151  and  _152
REMARK   68  A    between atoms: _154  and  _156
REMARK   69  A    between atoms: _156  and  _157
REMARK   70  A    between atoms: _159  and  _161
REMARK   71  A    between atoms: _161  and  _162
REMARK   72  A    between atoms: _161  and  _164
REMARK   73  A    between atoms: _164  and  _165
REMARK   74  A    between atoms: _168  and  _170
REMARK   75  A    between atoms: _170  and  _171
REMARK   76  A    between atoms: _170  and  _173
REMARK   77  A    between atoms: _173  and  _174
REMARK   78  A    between atoms: _174  and  _175
REMARK   79  A    between atoms: _180  and  _182
REMARK   80  A    between atoms: _182  and  _183
REMARK   81  A    between atoms: _182  and  _185
REMARK   82  A    between atoms: _185  and  _186
REMARK   83  A    between atoms: _192  and  _194
REMARK   84  A    between atoms: _194  and  _195
REMARK   85  A    between atoms: _194  and  _197
REMARK   86  A    between atoms: _200  and  _202
REMARK   87  A    between atoms: _202  and  _203
REMARK   88  A    between atoms: _202  and  _205
REMARK   89  A    between atoms: _205  and  _206
REMARK   90  A    between atoms: _211  and  _213
REMARK   91  A    between atoms: _213  and  _214
REMARK   92  A    between atoms: _213  and  _216
REMARK   93  A    between atoms: _216  and  _217
REMARK   94  A    between atoms: _219  and  _221
REMARK   95  A    between atoms: _221  and  _222
REMARK   96  A    between atoms: _221  and  _224
REMARK   97  A    between atoms: _224  and  _225
REMARK   98  A    between atoms: _225  and  _226
REMARK   99  A    between atoms: _226  and  _227
REMARK  100  A    between atoms: _227  and  _228
REMARK  101  A    between atoms: _232  and  _234
REMARK  102  A    between atoms: _234  and  _235
REMARK  103  A    between atoms: _234  and  _237
REMARK  104  A    between atoms: _237  and  _238
REMARK  105  A    between atoms: _241  and  _243
REMARK  106  A    between atoms: _243  and  _244
REMARK  107  A    between atoms: _247  and  _249
REMARK  108  A    between atoms: _249  and  _250
REMARK  109  A    between atoms: _249  and  _252
REMARK  110  A    between atoms: _255  and  _257
REMARK  111  A    between atoms: _257  and  _258
REMARK  112  A    between atoms: _257  and  _260
REMARK  113  A    between atoms: _260  and  _261
REMARK  114  A    between atoms: _261  and  _262
REMARK  115  A    between atoms: _265  and  _267
REMARK  116  A    between atoms: _267  and  _268
REMARK  117  A    between atoms: _267  and  _270
REMARK  118  A    between atoms: _270  and  _271
REMARK  119  A    between atoms: _271  and  _272
REMARK  120  A    between atoms: _274  and  _276
REMARK  121  A    between atoms: _276  and  _277
REMARK  122  A    between atoms: _276  and  _279
REMARK  123  A    between atoms: _279  and  _280
REMARK  124  A    between atoms: _280  and  _281
REMARK  125  A    between atoms: _284  and  _286
REMARK  126  A    between atoms: _286  and  _287
REMARK  127  A    between atoms: _289  and  _291
REMARK  128  A    between atoms: _291  and  _292
REMARK  129  A    between atoms: _291  and  _294
REMARK  130  A    between atoms: _294  and  _295
REMARK  131  A    between atoms: _295  and  _296
REMARK  132  A    between atoms: _296  and  _297
REMARK  133  A    between atoms: _306  and  _308
REMARK  134  A    between atoms: _308  and  _309
REMARK  135  A    between atoms: _308  and  _311
REMARK  136  A    between atoms: _311  and  _312
REMARK  137  A    between atoms: _314  and  _316
REMARK  138  A    between atoms: _316  and  _317
REMARK  139  A    between atoms: _316  and  _319
REMARK  140  A    between atoms: _319  and  _320
REMARK  141  A    between atoms: _323  and  _325
REMARK  142  A    between atoms: _325  and  _326
REMARK  143  A    between atoms: _325  and  _328
REMARK  144  A    between atoms: _328  and  _329
REMARK  145  A    between atoms: _331  and  _333
REMARK  146  A    between atoms: _333  and  _334
REMARK  147  A    between atoms: _333  and  _336
REMARK  148  A    between atoms: _336  and  _337
REMARK  149  A    between atoms: _340  and  _342
REMARK  150  A    between atoms: _342  and  _343
REMARK  151  A    between atoms: _342  and  _345
REMARK  152  A    between atoms: _345  and  _346
REMARK  153  A    between atoms: _351  and  _353
REMARK  154  A    between atoms: _353  and  _354
REMARK  155  A    between atoms: _357  and  _359
REMARK  156  A    between atoms: _359  and  _360
REMARK  157  A    between atoms: _359  and  _362
REMARK  158  A    between atoms: _362  and  _363
REMARK  159  A    between atoms: _366  and  _368
REMARK  160  A    between atoms: _368  and  _369
REMARK  161  A    between atoms: _372  and  _374
REMARK  162  A    between atoms: _374  and  _375
REMARK  163  A    between atoms: _377  and  _379
REMARK  164  A    between atoms: _379  and  _380
REMARK  165  A    between atoms: _379  and  _382
REMARK  166  A    between atoms: _382  and  _383
REMARK  167  A    between atoms: _385  and  _387
REMARK  168  A    between atoms: _387  and  _388
REMARK  169  A    between atoms: _387  and  _390
REMARK  170  A    between atoms: _390  and  _391
REMARK  171  A    between atoms: _397  and  _399
REMARK  172  A    between atoms: _399  and  _400
REMARK  173  A    between atoms: _399  and  _402
REMARK  174  A    between atoms: _402  and  _403
REMARK  175  A    between atoms: _406  and  _408
REMARK  176  A    between atoms: _408  and  _409
REMARK  177  A    between atoms: _408  and  _411
REMARK  178  A    between atoms: _411  and  _412
REMARK  179  A    between atoms: _415  and  _417
REMARK  180  A    between atoms: _417  and  _418
REMARK  181  A    between atoms: _417  and  _420
REMARK  182  A    between atoms: _420  and  _421
REMARK  183  A    between atoms: _423  and  _425
REMARK  184  A    between atoms: _425  and  _426
REMARK  185  A    between atoms: _425  and  _428
REMARK  186  A    between atoms: _428  and  _429
REMARK  187  A    between atoms: _432  and  _434
REMARK  188  A    between atoms: _434  and  _435
REMARK  189  A    between atoms: _434  and  _437
REMARK  190  A    between atoms: _437  and  _438
REMARK  191  A    between atoms: _441  and  _443
REMARK  192  A    between atoms: _443  and  _444
REMARK  193  A    between atoms: _443  and  _446
REMARK  194  A    between atoms: _446  and  _447
REMARK  195  A    between atoms: _449  and  _451
REMARK  196  A    between atoms: _451  and  _452
REMARK  197  A    between atoms: _455  and  _457
REMARK  198  A    between atoms: _457  and  _458
REMARK  199  A    between atoms: _457  and  _460
REMARK  200  A    between atoms: _460  and  _461
REMARK  201  A    between atoms: _467  and  _469
REMARK  202  A    between atoms: _469  and  _470
REMARK  203  A    between atoms: _469  and  _472
REMARK  204  A    between atoms: _472  and  _473
REMARK  205  A    between atoms: _476  and  _478
REMARK  206  A    between atoms: _478  and  _479
REMARK  207  A    between atoms: _478  and  _481
REMARK  208  A    between atoms: _481  and  _482
REMARK  209  A    between atoms: _487  and  _489
REMARK  210  A    between atoms: _489  and  _490
REMARK  211  A    between atoms: _489  and  _492
REMARK  212  A    between atoms: _492  and  _493
REMARK  213  A    between atoms: _499  and  _501
REMARK  214  A    between atoms: _501  and  _502
REMARK  215  A    between atoms: _501  and  _504
REMARK  216  A    between atoms: _504  and  _505
REMARK  217  A    between atoms: _509  and  _510
REMARK  218  A    between atoms: _515  and  _517
REMARK  219  A    between atoms: _517  and  _518
REMARK  220  A    between atoms: _517  and  _520
REMARK  221  A    between atoms: _520  and  _521
REMARK  222  A    between atoms: _521  and  _522
REMARK  223  A    between atoms: _525  and  _527
REMARK  224  A    between atoms: _527  and  _528
REMARK  225  A    between atoms: _527  and  _530
REMARK  226  A    between atoms: _530  and  _531
REMARK                            x       y       z     vdW  Elec       q    Type
REMARK                         _______ _______ _______ _____ _____    ______ ____
ROOT
ATOM      1  C   ALA A   1      46.566  76.346  25.241  0.00  0.00    +0.238 C 
ATOM      2  O   ALA A   1      46.097  75.252  25.561  0.00  0.00    -0.274 OA
ATOM      3  N   GLY A   2      46.804  76.688  23.975  0.00  0.00    -0.297 N 
ATOM      4  H   GLY A   2      47.199  77.626  23.762  0.00  0.00    +0.150 HD
ENDROOT
BRANCH   1   5
ATOM      5  CA  ALA A   1      46.817  77.390  26.300  0.00  0.00    +0.145 C 
ATOM      6  CB  ALA A   1      45.563  78.247  26.476  0.00  0.00    +0.028 C 
BRANCH   5   7
ATOM      7  N   ALA A   1      47.979  78.238  26.048  0.00  0.00    -0.238 NA
ATOM      8  H   ALA A   1      47.847  79.256  25.884  0.00  0.00    +0.142 HD
ENDBRANCH   5   7
ENDBRANCH   1   5
BRANCH   3   9
ATOM      9  CA  GLY A   2      46.517  75.763  22.887  0.00  0.00    +0.163 C 
BRANCH   9  10
ATOM     10  C   GLY A   2      47.370  74.515  23.025  0.00  0.00    +0.229 C 
ATOM     11  O   GLY A   2      46.883  73.387  22.860  0.00  0.00    -0.286 OA
ENDBRANCH   9  10
ENDBRANCH   3   9
TORSDOF 4
REMARK  Name = ../refined-set-2016/4wkp/4wkp_pocket.pdb
REMARK  226 active torsions:
REMARK  status: ('A' for Active; 'I' for Inactive)
REMARK    1  A    between atoms: _1  and  _3
REMARK    2  A    between atoms: _3  and  _4
REMARK    3  A    between atoms: _6  and  _8
REMARK    4  A    between atoms: _8  and  _9
REMARK    5  A    between atoms: _12  and  _14
REMARK    6  A    between atoms: _14  and  _15
REMARK    7  A    between atoms: _14  and  _17
REMARK    8  A    between atoms: _17  and  _18
REMARK    9  A    between atoms: _18  and  _19
REMARK   10  A    between atoms: _21  and  _23
REMARK   11  A    between atoms: _23  and  _24
REMARK   12  A    between atoms: _23  and  _26
REMARK   13  A    between atoms: _26  and  _27
REMARK   14  A    between atoms: _27  and  _28
REMARK   15  A    between atoms: _31  and  _33
REMARK   16  A    between atoms: _33  and  _34
REMARK   17  A    between atoms: _33  and  _36
REMARK   18  A    between atoms: _36  and  _37
REMARK   19  A    between atoms: _37  and  _38
REMARK   20  A    between atoms: _41  and  _43
REMARK   21  A    between atoms: _43  and  _44
REMARK   22  A    between atoms: _43  and  _46
REMARK   23  A    between atoms: _46  and  _47
REMARK   24  A    between atoms: _49  and  _51
REMARK   25  A    between atoms: _51  and  _52
REMARK   26  A    between atoms: _51  and  _54
REMARK   27  A    between atoms: _54  and  _55
REMARK   28  A    between atoms: _55  and  _56
REMARK   29  A    between atoms: _56  and  _57
REMARK   30  A    between atoms: _57  and  _58
REMARK   31  A    between atoms: _62  and  _64
REMARK   32  A    between atoms: _64  and  _65
REMARK   33  A    between atoms: _64  and  _67
REMARK   34  A    between atoms: _67  and  _68
REMARK   35  A    between atoms: _71  and  _73
REMARK   36  A    between atoms: _73  and  _74
REMARK   37  A    between atoms: _76  and  _78
REMARK   38  A    between atoms: _78  and  _79
REMARK   39  A    between atoms: _78  and  _81
REMARK   40  A    between atoms: _81  and  _82
REMARK   41  A    between atoms: _88  and  _90
REMARK   42  A    between atoms: _90  and  _91
REMARK   43  A    between atoms: _93  and  _95
REMARK   44  A    between atoms: _95  and  _96
REMARK   45  A    between atoms: _95  and  _98
REMARK   46  A    between atoms: _101  and  _103
REMARK   47  A    between atoms: _103  and  _104
REMARK   48  A    between atoms: _107  and  _109
REMARK   49  A    between atoms: _109  and  _110
REMARK   50  A    between atoms: _112  and  _114
REMARK   51  A    between atoms: _114  and  _115
REMARK   52  A    between atoms: _114  and  _117
REMARK   53  A    between atoms: _117  and  _118
REMARK   54  A    between atoms: _120  and  _122
REMARK   55  A    between atoms: _122  and  _123
REMARK   56  A    between atoms: _122  and  _125
REMARK   57  A    between atoms: _125  and  _126
REMARK   58  A    between atoms: _129  and  _131
REMARK   59  A    between atoms: _131  and  _132
REMARK   60  A    between atoms: _131  and  _134
REMARK   61  A    between atoms: _134  and  _135
REMARK   62  A    between atoms: _140  and  _142
REMARK   63  A    between atoms: _142  and  _143
REMARK   64  A    between atoms: _146  and  _148
REMARK   65  A    between atoms: _148  and  _149
REMARK   66  A    between atoms: _148  and  _151
REMARK   67  A    between atoms: _151  and  _152
REMARK   68  A    between atoms: _154  and  _156
REMARK   69  A    between atoms: _156  and  _157
REMARK   70  A    between atoms: _159  and  _161
REMARK   71  A    between atoms: _161  and  _162
REMARK   72  A    between atoms: _161  and  _164
REMARK   73  A    between atoms: _164  and  _165
REMARK   74  A    between atoms: _168  and  _170
REMARK   75  A    between atoms: _170  and  _171
REMARK   76  A    between atoms: _170  and  _173
REMARK   77  A    between atoms: _173  and  _174
REMARK   78  A    between atoms: _174  and  _175
REMARK   79  A    between atoms: _180  and  _182
REMARK   80  A    between atoms: _182  and  _183
REMARK   81  A    between atoms: _182  and  _185
REMARK   82  A    between atoms: _185  and  _186
REMARK   83  A    between atoms: _192  and  _194
REMARK   84  A    between atoms: _194  and  _195
REMARK   85  A    between atoms: _194  and  _197
REMARK   86  A    between atoms: _200  and  _202
REMARK   87  A    between atoms: _202  and  _203
REMARK   88  A    between atoms: _202  and  _205
REMARK   89  A    between atoms: _205  and  _206
REMARK   90  A    between atoms: _211  and  _213
REMARK   91  A    between atoms: _213  and  _214
REMARK   92  A    between atoms: _213  and  _216
REMARK   93  A    between atoms: _216  and  _217
REMARK   94  A    between atoms: _219  and  _221
REMARK   95  A    between atoms: _221  and  _222
REMARK   96  A    between atoms: _221  and  _224
REMARK   97  A    between atoms: _224  and  _225
REMARK   98  A    between atoms: _225  and  _226
REMARK   99  A    between atoms: _226  and  _227
REMARK  100  A    between atoms: _227  and  _228
REMARK  101  A    between atoms: _232  and  _234
REMARK  102  A    between atoms: _234  and  _235
REMARK  103  A    between atoms: _234  and  _237
REMARK  104  A    between atoms: _237  and  _238
REMARK  105  A    between atoms: _241  and  _243
REMARK  106  A    between atoms: _243  and  _244
REMARK  107  A    between atoms: _247  and  _249
REMARK  108  A    between atoms: _249  and  _250
REMARK  109  A    between atoms: _249  and  _252
REMARK  110  A    between atoms: _255  and  _257
REMARK  111  A    between atoms: _257  and  _258
REMARK  112  A    between atoms: _257  and  _260
REMARK  113  A    between atoms: _260  and  _261
REMARK  114  A    between atoms: _261  and  _262
REMARK  115  A    between atoms: _265  and  _267
REMARK  116  A    between atoms: _267  and  _268
REMARK  117  A    between atoms: _267  and  _270
REMARK  118  A    between atoms: _270  and  _271
REMARK  119  A    between atoms: _271  and  _272
REMARK  120  A    between atoms: _274  and  _276
REMARK  121  A    between atoms: _276  and  _277
REMARK  122  A    between atoms: _276  and  _279
REMARK  123  A    between atoms: _279  and  _280
REMARK  124  A    between atoms: _280  and  _281
REMARK  125  A    between atoms: _284  and  _286
REMARK  126  A    between atoms: _286  and  _287
REMARK  127  A    between atoms: _289  and  _291
REMARK  128  A    between atoms: _291  and  _292
REMARK  129  A    between atoms: _291  and  _294
REMARK  130  A    between atoms: _294  and  _295
REMARK  131  A    between atoms: _295  and  _296
REMARK  132  A    between atoms: _296  and  _297
REMARK  133  A    between atoms: _306  and  _308
REMARK  134  A    between atoms: _308  and  _309
REMARK  135  A    between atoms: _308  and  _311
REMARK  136  A    between atoms: _311  and  _312
REMARK  137  A    between atoms: _314  and  _316
REMARK  138  A    between atoms: _316  and  _317
REMARK  139  A    between atoms: _316  and  _319
REMARK  140  A    between atoms: _319  and  _320
REMARK  141  A    between atoms: _323  and  _325
REMARK  142  A    between atoms: _325  and  _326
REMARK  143  A    between atoms: _325  and  _328
REMARK  144  A    between atoms: _328  and  _329
REMARK  145  A    between atoms: _331  and  _333
REMARK  146  A    between atoms: _333  and  _334
REMARK  147  A    between atoms: _333  and  _336
REMARK  148  A    between atoms: _336  and  _337
REMARK  149  A    between atoms: _340  and  _342
REMARK  150  A    between atoms: _342  and  _343
REMARK  151  A    between atoms: _342  and  _345
REMARK  152  A    between atoms: _345  and  _346
REMARK  153  A    between atoms: _351  and  _353
REMARK  154  A    between atoms: _353  and  _354
REMARK  155  A    between atoms: _357  and  _359
REMARK  156  A    between atoms: _359  and  _360
REMARK  157  A    between atoms: _359  and  _362
REMARK  158  A    between atoms: _362  and  _363
REMARK  159  A    between atoms: _366  and  _368
REMARK  160  A    between atoms: _368  and  _369
REMARK  161  A    between atoms: _372  and  _374
REMARK  162  A    between atoms: _374  and  _375
REMARK  163  A    between atoms: _377  and  _379
REMARK  164  A    between atoms: _379  and  _380
REMARK  165  A    between atoms: _379  and  _382
REMARK  166  A    between atoms: _382  and  _383
REMARK  167  A    between atoms: _385  and  _387
REMARK  168  A    between atoms: _387  and  _388
REMARK  169  A    between atoms: _387  and  _390
REMARK  170  A    between atoms: _390  and  _391
REMARK  171  A    between atoms: _397  and  _399
REMARK  172  A    between atoms: _399  and  _400
REMARK  173  A    between atoms: _399  and  _402
REMARK  174  A    between atoms: _402  and  _403
REMARK  175  A    between atoms: _406  and  _408
REMARK  176  A    between atoms: _408  and  _409
REMARK  177  A    between atoms: _408  and  _411
REMARK  178  A    between atoms: _411  and  _412
REMARK  179  A    between atoms: _415  and  _417
REMARK  180  A    between atoms: _417  and  _418
REMARK  181  A    between atoms: _417  and  _420
REMARK  182  A    between atoms: _420  and  _421
REMARK  183  A    between atoms: _423  and  _425
REMARK  184  A    between atoms: _425  and  _426
REMARK  185  A    between atoms: _425  and  _428
REMARK  186  A    between atoms: _428  and  _429
REMARK  187  A    between atoms: _432  and  _434
REMARK  188  A    between atoms: _434  and  _435
REMARK  189  A    between atoms: _434  and  _437
REMARK  190  A    between atoms: _437  and  _438
REMARK  191  A    between atoms: _441  and  _443
REMARK  192  A    between atoms: _443  and  _444
REMARK  193  A    between atoms: _443  and  _446
REMARK  194  A    between atoms: _446  and  _447
REMARK  195  A    between atoms: _449  and  _451
REMARK  196  A    between atoms: _451  and  _452
REMARK  197  A    between atoms: _455  and  _457
REMARK  198  A    between atoms: _457  and  _458
REMARK  199  A    between atoms: _457  and  _460
REMARK  200  A    between atoms: _460  and  _461
REMARK  201  A    between atoms: _467  and  _469
REMARK  202  A    between atoms: _469  and  _470
REMARK  203  A    between atoms: _469  and  _472
REMARK  204  A    between atoms: _472  and  _473
REMARK  205  A    between atoms: _476  and  _478
REMARK  206  A    between atoms: _478  and  _479
REMARK  207  A    between atoms: _478  and  _481
REMARK  208  A    between atoms: _481  and  _482
REMARK  209  A    between atoms: _487  and  _489
REMARK  210  A    between atoms: _489  and  _490
REMARK  211  A    between atoms: _489  and  _492
REMARK  212  A    between atoms: _492  and  _493
REMARK  213  A    between atoms: _499  and  _501
REMARK  214  A    between atoms: _501  and  _502
REMARK  215  A    between atoms: _501  and  _504
REMARK  216  A    between atoms: _504  and  _505
REMARK  217  A    between atoms: _509  and  _510
REMARK  218  A    between atoms: _515  and  _517
REMARK  219  A    between atoms: _517  and  _518
REMARK  220  A    between atoms: _517  and  _520
REMARK  221  A    between atoms: _520  and  _521
REMARK  222  A    between atoms: _521  and  _522
REMARK  223  A    between atoms: _525  and  _527
REMARK  224  A    between atoms: _527  and  _528
REMARK  225  A    between atoms: _527  and  _530
REMARK  226  A    between atoms: _530  and  _531
REMARK                            x       y       z     vdW  Elec       q    Type
REMARK                         _______ _______ _______ _____ _____    ______ ____
ROOT
ATOM      1  CA  PHE A   2      45.092  71.842  25.873  0.00  0.00    +0.153 C 
ENDROOT
BRANCH   1   4
ATOM      2  C   SER A   1      47.335  71.897  26.809  0.00  0.00    +0.241 C 
ATOM      3  O   SER A   1      47.261  70.741  27.188  0.00  0.00    -0.274 OA
ATOM      4  N   PHE A   2      46.340  72.526  26.178  0.00  0.00    -0.297 N 
ATOM      5  H   PHE A   2      46.459  73.521  25.900  0.00  0.00    +0.150 HD
BRANCH   2   6
ATOM      6  CA  SER A   1      48.602  72.694  27.022  0.00  0.00    +0.174 C 
BRANCH   6   7
ATOM      7  N   SER A   1      48.978  73.396  25.806  0.00  0.00    -0.236 NA
ATOM      8  H   SER A   1      49.025  74.435  25.815  0.00  0.00    +0.142 HD
ENDBRANCH   6   7
BRANCH   6   9
ATOM      9  CB  SER A   1      48.384  73.678  28.164  0.00  0.00    +0.163 C 
BRANCH   9  10
ATOM     10  OG  SER A   1      48.066  72.992  29.348  0.00  0.00    -0.380 OA
ATOM     11  H   SER A   1      47.238  72.467  29.212  0.00  0.00    +0.211 HD
ENDBRANCH   9  10
ENDBRANCH   6   9
ENDBRANCH   2   6
ENDBRANCH   1   4
BRANCH   1  12
ATOM     12  C   PHE A   2      45.306  70.534  25.109  0.00  0.00    +0.241 C 
ATOM     13  O   PHE A   2      44.742  69.501  25.486  0.00  0.00    -0.273 OA
ATOM     14  N   ASP A   3      46.101  70.570  24.041  0.00  0.00    -0.298 N 
ATOM     15  H   ASP A   3      46.572  71.458  23.775  0.00  0.00    +0.150 HD
BRANCH  14  16
ATOM     16  CA  ASP A   3      46.315  69.361  23.238  0.00  0.00    +0.148 C 
BRANCH  16  17
ATOM     17  C   ASP A   3      47.067  68.312  24.043  0.00  0.00    +0.227 C 
ATOM     18  O   ASP A   3      46.795  67.119  23.912  0.00  0.00    -0.286 OA
ENDBRANCH  16  17
BRANCH  16  19
ATOM     19  CB  ASP A   3      47.070  69.664  21.942  0.00  0.00    +0.142 C 
BRANCH  19  20
ATOM     20  CG  ASP A   3      46.225  70.414  20.916  0.00  0.00    +0.367 C 
ATOM     21  OD2 ASP A   3      44.983  70.299  20.945  0.00  0.00    -0.246 OA
ATOM     22  OD1 ASP A   3      46.808  71.103  20.052  0.00  0.00    -0.246 OA
ENDBRANCH  19  20
ENDBRANCH  16  19
ENDBRANCH  14  16
ENDBRANCH   1  12
BRANCH   1  23
ATOM     23  CB  PHE A   2      44.150  72.771  25.092  0.00  0.00    +0.055 C 
BRANCH  23  24
ATOM     24  CG  PHE A   2      42.872  72.107  24.669  0.00  0.00    -0.020 A 
ATOM     25  CD2 PHE A   2      41.808  71.987  25.544  0.00  0.00    -0.004 A 
ATOM     26  CE2 PHE A   2      40.647  71.363  25.145  0.00  0.00    -0.000 A 
ATOM     27  CZ  PHE A   2      40.547  70.848  23.865  0.00  0.00    -0.000 A 
ATOM     28  CE1 PHE A   2      41.602  70.952  22.992  0.00  0.00    -0.000 A 
ATOM     29  CD1 PHE A   2      42.752  71.578  23.393  0.00  0.00    -0.004 A 
ENDBRANCH  23  24
ENDBRANCH   1  23
TORSDOF 12
REMARK  Name = ../refined-set-2016/4wkp/4wkp_pocket.pdb
REMARK  226 active torsions:
REMARK  status: ('A' for Active; 'I' for Inactive)
REMARK    1  A    between atoms: _1  and  _3
REMARK    2  A    between atoms: _3  and  _4
REMARK    3  A    between atoms: _6  and  _8
REMARK    4  A    between atoms: _8  and  _9
REMARK    5  A    between atoms: _12  and  _14
REMARK    6  A    between atoms: _14  and  _15
REMARK    7  A    between atoms: _14  and  _17
REMARK    8  A    between atoms: _17  and  _18
REMARK    9  A    between atoms: _18  and  _19
REMARK   10  A    between atoms: _21  and  _23
REMARK   11  A    between atoms: _23  and  _24
REMARK   12  A    between atoms: _23  and  _26
REMARK   13  A    between atoms: _26  and  _27
REMARK   14  A    between atoms: _27  and  _28
REMARK   15  A    between atoms: _31  and  _33
REMARK   16  A    between atoms: _33  and  _34
REMARK   17  A    between atoms: _33  and  _36
REMARK   18  A    between atoms: _36  and  _37
REMARK   19  A    between atoms: _37  and  _38
REMARK   20  A    between atoms: _41  and  _43
REMARK   21  A    between atoms: _43  and  _44
REMARK   22  A    between atoms: _43  and  _46
REMARK   23  A    between atoms: _46  and  _47
REMARK   24  A    between atoms: _49  and  _51
REMARK   25  A    between atoms: _51  and  _52
REMARK   26  A    between atoms: _51  and  _54
REMARK   27  A    between atoms: _54  and  _55
REMARK   28  A    between atoms: _55  and  _56
REMARK   29  A    between atoms: _56  and  _57
REMARK   30  A    between atoms: _57  and  _58
REMARK   31  A    between atoms: _62  and  _64
REMARK   32  A    between atoms: _64  and  _65
REMARK   33  A    between atoms: _64  and  _67
REMARK   34  A    between atoms: _67  and  _68
REMARK   35  A    between atoms: _71  and  _73
REMARK   36  A    between atoms: _73  and  _74
REMARK   37  A    between atoms: _76  and  _78
REMARK   38  A    between atoms: _78  and  _79
REMARK   39  A    between atoms: _78  and  _81
REMARK   40  A    between atoms: _81  and  _82
REMARK   41  A    between atoms: _88  and  _90
REMARK   42  A    between atoms: _90  and  _91
REMARK   43  A    between atoms: _93  and  _95
REMARK   44  A    between atoms: _95  and  _96
REMARK   45  A    between atoms: _95  and  _98
REMARK   46  A    between atoms: _101  and  _103
REMARK   47  A    between atoms: _103  and  _104
REMARK   48  A    between atoms: _107  and  _109
REMARK   49  A    between atoms: _109  and  _110
REMARK   50  A    between atoms: _112  and  _114
REMARK   51  A    between atoms: _114  and  _115
REMARK   52  A    between atoms: _114  and  _117
REMARK   53  A    between atoms: _117  and  _118
REMARK   54  A    between atoms: _120  and  _122
REMARK   55  A    between atoms: _122  and  _123
REMARK   56  A    between atoms: _122  and  _125
REMARK   57  A    between atoms: _125  and  _126
REMARK   58  A    between atoms: _129  and  _131
REMARK   59  A    between atoms: _131  and  _132
REMARK   60  A    between atoms: _131  and  _134
REMARK   61  A    between atoms: _134  and  _135
REMARK   62  A    between atoms: _140  and  _142
REMARK   63  A    between atoms: _142  and  _143
REMARK   64  A    between atoms: _146  and  _148
REMARK   65  A    between atoms: _148  and  _149
REMARK   66  A    between atoms: _148  and  _151
REMARK   67  A    between atoms: _151  and  _152
REMARK   68  A    between atoms: _154  and  _156
REMARK   69  A    between atoms: _156  and  _157
REMARK   70  A    between atoms: _159  and  _161
REMARK   71  A    between atoms: _161  and  _162
REMARK   72  A    between atoms: _161  and  _164
REMARK   73  A    between atoms: _164  and  _165
REMARK   74  A    between atoms: _168  and  _170
REMARK   75  A    between atoms: _170  and  _171
REMARK   76  A    between atoms: _170  and  _173
REMARK   77  A    between atoms: _173  and  _174
REMARK   78  A    between atoms: _174  and  _175
REMARK   79  A    between atoms: _180  and  _182
REMARK   80  A    between atoms: _182  and  _183
REMARK   81  A    between atoms: _182  and  _185
REMARK   82  A    between atoms: _185  and  _186
REMARK   83  A    between atoms: _192  and  _194
REMARK   84  A    between atoms: _194  and  _195
REMARK   85  A    between atoms: _194  and  _197
REMARK   86  A    between atoms: _200  and  _202
REMARK   87  A    between atoms: _202  and  _203
REMARK   88  A    between atoms: _202  and  _205
REMARK   89  A    between atoms: _205  and  _206
REMARK   90  A    between atoms: _211  and  _213
REMARK   91  A    between atoms: _213  and  _214
REMARK   92  A    between atoms: _213  and  _216
REMARK   93  A    between atoms: _216  and  _217
REMARK   94  A    between atoms: _219  and  _221
REMARK   95  A    between atoms: _221  and  _222
REMARK   96  A    between atoms: _221  and  _224
REMARK   97  A    between atoms: _224  and  _225
REMARK   98  A    between atoms: _225  and  _226
REMARK   99  A    between atoms: _226  and  _227
REMARK  100  A    between atoms: _227  and  _228
REMARK  101  A    between atoms: _232  and  _234
REMARK  102  A    between atoms: _234  and  _235
REMARK  103  A    between atoms: _234  and  _237
REMARK  104  A    between atoms: _237  and  _238
REMARK  105  A    between atoms: _241  and  _243
REMARK  106  A    between atoms: _243  and  _244
REMARK  107  A    between atoms: _247  and  _249
REMARK  108  A    between atoms: _249  and  _250
REMARK  109  A    between atoms: _249  and  _252
REMARK  110  A    between atoms: _255  and  _257
REMARK  111  A    between atoms: _257  and  _258
REMARK  112  A    between atoms: _257  and  _260
REMARK  113  A    between atoms: _260  and  _261
REMARK  114  A    between atoms: _261  and  _262
REMARK  115  A    between atoms: _265  and  _267
REMARK  116  A    between atoms: _267  and  _268
REMARK  117  A    between atoms: _267  and  _270
REMARK  118  A    between atoms: _270  and  _271
REMARK  119  A    between atoms: _271  and  _272
REMARK  120  A    between atoms: _274  and  _276
REMARK  121  A    between atoms: _276  and  _277
REMARK  122  A    between atoms: _276  and  _279
REMARK  123  A    between atoms: _279  and  _280
REMARK  124  A    between atoms: _280  and  _281
REMARK  125  A    between atoms: _284  and  _286
REMARK  126  A    between atoms: _286  and  _287
REMARK  127  A    between atoms: _289  and  _291
REMARK  128  A    between atoms: _291  and  _292
REMARK  129  A    between atoms: _291  and  _294
REMARK  130  A    between atoms: _294  and  _295
REMARK  131  A    between atoms: _295  and  _296
REMARK  132  A    between atoms: _296  and  _297
REMARK  133  A    between atoms: _306  and  _308
REMARK  134  A    between atoms: _308  and  _309
REMARK  135  A    between atoms: _308  and  _311
REMARK  136  A    between atoms: _311  and  _312
REMARK  137  A    between atoms: _314  and  _316
REMARK  138  A    between atoms: _316  and  _317
REMARK  139  A    between atoms: _316  and  _319
REMARK  140  A    between atoms: _319  and  _320
REMARK  141  A    between atoms: _323  and  _325
REMARK  142  A    between atoms: _325  and  _326
REMARK  143  A    between atoms: _325  and  _328
REMARK  144  A    between atoms: _328  and  _329
REMARK  145  A    between atoms: _331  and  _333
REMARK  146  A    between atoms: _333  and  _334
REMARK  147  A    between atoms: _333  and  _336
REMARK  148  A    between atoms: _336  and  _337
REMARK  149  A    between atoms: _340  and  _342
REMARK  150  A    between atoms: _342  and  _343
REMARK  151  A    between atoms: _342  and  _345
REMARK  152  A    between atoms: _345  and  _346
REMARK  153  A    between atoms: _351  and  _353
REMARK  154  A    between atoms: _353  and  _354
REMARK  155  A    between atoms: _357  and  _359
REMARK  156  A    between atoms: _359  and  _360
REMARK  157  A    between atoms: _359  and  _362
REMARK  158  A    between atoms: _362  and  _363
REMARK  159  A    between atoms: _366  and  _368
REMARK  160  A    between atoms: _368  and  _369
REMARK  161  A    between atoms: _372  and  _374
REMARK  162  A    between atoms: _374  and  _375
REMARK  163  A    between atoms: _377  and  _379
REMARK  164  A    between atoms: _379  and  _380
REMARK  165  A    between atoms: _379  and  _382
REMARK  166  A    between atoms: _382  and  _383
REMARK  167  A    between atoms: _385  and  _387
REMARK  168  A    between atoms: _387  and  _388
REMARK  169  A    between atoms: _387  and  _390
REMARK  170  A    between atoms: _390  and  _391
REMARK  171  A    between atoms: _397  and  _399
REMARK  172  A    between atoms: _399  and  _400
REMARK  173  A    between atoms: _399  and  _402
REMARK  174  A    between atoms: _402  and  _403
REMARK  175  A    between atoms: _406  and  _408
REMARK  176  A    between atoms: _408  and  _409
REMARK  177  A    between atoms: _408  and  _411
REMARK  178  A    between atoms: _411  and  _412
REMARK  179  A    between atoms: _415  and  _417
REMARK  180  A    between atoms: _417  and  _418
REMARK  181  A    between atoms: _417  and  _420
REMARK  182  A    between atoms: _420  and  _421
REMARK  183  A    between atoms: _423  and  _425
REMARK  184  A    between atoms: _425  and  _426
REMARK  185  A    between atoms: _425  and  _428
REMARK  186  A    between atoms: _428  and  _429
REMARK  187  A    between atoms: _432  and  _434
REMARK  188  A    between atoms: _434  and  _435
REMARK  189  A    between atoms: _434  and  _437
REMARK  190  A    between atoms: _437  and  _438
REMARK  191  A    between atoms: _441  and  _443
REMARK  192  A    between atoms: _443  and  _444
REMARK  193  A    between atoms: _443  and  _446
REMARK  194  A    between atoms: _446  and  _447
REMARK  195  A    between atoms: _449  and  _451
REMARK  196  A    between atoms: _451  and  _452
REMARK  197  A    between atoms: _455  and  _457
REMARK  198  A    between atoms: _457  and  _458
REMARK  199  A    between atoms: _457  and  _460
REMARK  200  A    between atoms: _460  and  _461
REMARK  201  A    between atoms: _467  and  _469
REMARK  202  A    between atoms: _469  and  _470
REMARK  203  A    between atoms: _469  and  _472
REMARK  204  A    between atoms: _472  and  _473
REMARK  205  A    between atoms: _476  and  _478
REMARK  206  A    between atoms: _478  and  _479
REMARK  207  A    between atoms: _478  and  _481
REMARK  208  A    between atoms: _481  and  _482
REMARK  209  A    between atoms: _487  and  _489
REMARK  210  A    between atoms: _489  and  _490
REMARK  211  A    between atoms: _489  and  _492
REMARK  212  A    between atoms: _492  and  _493
REMARK  213  A    between atoms: _499  and  _501
REMARK  214  A    between atoms: _501  and  _502
REMARK  215  A    between atoms: _501  and  _504
REMARK  216  A    between atoms: _504  and  _505
REMARK  217  A    between atoms: _509  and  _510
REMARK  218  A    between atoms: _515  and  _517
REMARK  219  A    between atoms: _517  and  _518
REMARK  220  A    between atoms: _517  and  _520
REMARK  221  A    between atoms: _520  and  _521
REMARK  222  A    between atoms: _521  and  _522
REMARK  223  A    between atoms: _525  and  _527
REMARK  224  A    between atoms: _527  and  _528
REMARK  225  A    between atoms: _527  and  _530
REMARK  226  A    between atoms: _530  and  _531
REMARK                            x       y       z     vdW  Elec       q    Type
REMARK                         _______ _______ _______ _____ _____    ______ ____
ROOT
ATOM      1  CA  LEU A   1      42.831  66.926  26.934  0.00  0.00    +0.133 C 
ENDROOT
BRANCH   1   2
ATOM      2  N   LEU A   1      44.242  67.196  27.199  0.00  0.00    -0.239 NA
ATOM      3  H   LEU A   1      44.839  67.578  26.438  0.00  0.00    +0.142 HD
ENDBRANCH   1   2
BRANCH   1   4
ATOM      4  C   LEU A   1      42.441  65.519  27.366  0.00  0.00    +0.224 C 
ATOM      5  O   LEU A   1      41.462  65.339  28.095  0.00  0.00    -0.287 OA
ENDBRANCH   1   4
BRANCH   1   6
ATOM      6  CB  LEU A   1      42.496  67.112  25.449  0.00  0.00    +0.025 C 
BRANCH   6   7
ATOM      7  CG  LEU A   1      41.085  66.684  25.008  0.00  0.00    +0.002 C 
ATOM      8  CD2 LEU A   1      40.033  67.453  25.792  0.00  0.00    +0.000 C 
ATOM      9  CD1 LEU A   1      40.876  66.887  23.515  0.00  0.00    +0.000 C 
ENDBRANCH   6   7
ENDBRANCH   1   6
TORSDOF 4
REMARK  Name = ../refined-set-2016/4wkp/4wkp_pocket.pdb
REMARK  226 active torsions:
REMARK  status: ('A' for Active; 'I' for Inactive)
REMARK    1  A    between atoms: _1  and  _3
REMARK    2  A    between atoms: _3  and  _4
REMARK    3  A    between atoms: _6  and  _8
REMARK    4  A    between atoms: _8  and  _9
REMARK    5  A    between atoms: _12  and  _14
REMARK    6  A    between atoms: _14  and  _15
REMARK    7  A    between atoms: _14  and  _17
REMARK    8  A    between atoms: _17  and  _18
REMARK    9  A    between atoms: _18  and  _19
REMARK   10  A    between atoms: _21  and  _23
REMARK   11  A    between atoms: _23  and  _24
REMARK   12  A    between atoms: _23  and  _26
REMARK   13  A    between atoms: _26  and  _27
REMARK   14  A    between atoms: _27  and  _28
REMARK   15  A    between atoms: _31  and  _33
REMARK   16  A    between atoms: _33  and  _34
REMARK   17  A    between atoms: _33  and  _36
REMARK   18  A    between atoms: _36  and  _37
REMARK   19  A    between atoms: _37  and  _38
REMARK   20  A    between atoms: _41  and  _43
REMARK   21  A    between atoms: _43  and  _44
REMARK   22  A    between atoms: _43  and  _46
REMARK   23  A    between atoms: _46  and  _47
REMARK   24  A    between atoms: _49  and  _51
REMARK   25  A    between atoms: _51  and  _52
REMARK   26  A    between atoms: _51  and  _54
REMARK   27  A    between atoms: _54  and  _55
REMARK   28  A    between atoms: _55  and  _56
REMARK   29  A    between atoms: _56  and  _57
REMARK   30  A    between atoms: _57  and  _58
REMARK   31  A    between atoms: _62  and  _64
REMARK   32  A    between atoms: _64  and  _65
REMARK   33  A    between atoms: _64  and  _67
REMARK   34  A    between atoms: _67  and  _68
REMARK   35  A    between atoms: _71  and  _73
REMARK   36  A    between atoms: _73  and  _74
REMARK   37  A    between atoms: _76  and  _78
REMARK   38  A    between atoms: _78  and  _79
REMARK   39  A    between atoms: _78  and  _81
REMARK   40  A    between atoms: _81  and  _82
REMARK   41  A    between atoms: _88  and  _90
REMARK   42  A    between atoms: _90  and  _91
REMARK   43  A    between atoms: _93  and  _95
REMARK   44  A    between atoms: _95  and  _96
REMARK   45  A    between atoms: _95  and  _98
REMARK   46  A    between atoms: _101  and  _103
REMARK   47  A    between atoms: _103  and  _104
REMARK   48  A    between atoms: _107  and  _109
REMARK   49  A    between atoms: _109  and  _110
REMARK   50  A    between atoms: _112  and  _114
REMARK   51  A    between atoms: _114  and  _115
REMARK   52  A    between atoms: _114  and  _117
REMARK   53  A    between atoms: _117  and  _118
REMARK   54  A    between atoms: _120  and  _122
REMARK   55  A    between atoms: _122  and  _123
REMARK   56  A    between atoms: _122  and  _125
REMARK   57  A    between atoms: _125  and  _126
REMARK   58  A    between atoms: _129  and  _131
REMARK   59  A    between atoms: _131  and  _132
REMARK   60  A    between atoms: _131  and  _134
REMARK   61  A    between atoms: _134  and  _135
REMARK   62  A    between atoms: _140  and  _142
REMARK   63  A    between atoms: _142  and  _143
REMARK   64  A    between atoms: _146  and  _148
REMARK   65  A    between atoms: _148  and  _149
REMARK   66  A    between atoms: _148  and  _151
REMARK   67  A    between atoms: _151  and  _152
REMARK   68  A    between atoms: _154  and  _156
REMARK   69  A    between atoms: _156  and  _157
REMARK   70  A    between atoms: _159  and  _161
REMARK   71  A    between atoms: _161  and  _162
REMARK   72  A    between atoms: _161  and  _164
REMARK   73  A    between atoms: _164  and  _165
REMARK   74  A    between atoms: _168  and  _170
REMARK   75  A    between atoms: _170  and  _171
REMARK   76  A    between atoms: _170  and  _173
REMARK   77  A    between atoms: _173  and  _174
REMARK   78  A    between atoms: _174  and  _175
REMARK   79  A    between atoms: _180  and  _182
REMARK   80  A    between atoms: _182  and  _183
REMARK   81  A    between atoms: _182  and  _185
REMARK   82  A    between atoms: _185  and  _186
REMARK   83  A    between atoms: _192  and  _194
REMARK   84  A    between atoms: _194  and  _195
REMARK   85  A    between atoms: _194  and  _197
REMARK   86  A    between atoms: _200  and  _202
REMARK   87  A    between atoms: _202  and  _203
REMARK   88  A    between atoms: _202  and  _205
REMARK   89  A    between atoms: _205  and  _206
REMARK   90  A    between atoms: _211  and  _213
REMARK   91  A    between atoms: _213  and  _214
REMARK   92  A    between atoms: _213  and  _216
REMARK   93  A    between atoms: _216  and  _217
REMARK   94  A    between atoms: _219  and  _221
REMARK   95  A    between atoms: _221  and  _222
REMARK   96  A    between atoms: _221  and  _224
REMARK   97  A    between atoms: _224  and  _225
REMARK   98  A    between atoms: _225  and  _226
REMARK   99  A    between atoms: _226  and  _227
REMARK  100  A    between atoms: _227  and  _228
REMARK  101  A    between atoms: _232  and  _234
REMARK  102  A    between atoms: _234  and  _235
REMARK  103  A    between atoms: _234  and  _237
REMARK  104  A    between atoms: _237  and  _238
REMARK  105  A    between atoms: _241  and  _243
REMARK  106  A    between atoms: _243  and  _244
REMARK  107  A    between atoms: _247  and  _249
REMARK  108  A    between atoms: _249  and  _250
REMARK  109  A    between atoms: _249  and  _252
REMARK  110  A    between atoms: _255  and  _257
REMARK  111  A    between atoms: _257  and  _258
REMARK  112  A    between atoms: _257  and  _260
REMARK  113  A    between atoms: _260  and  _261
REMARK  114  A    between atoms: _261  and  _262
REMARK  115  A    between atoms: _265  and  _267
REMARK  116  A    between atoms: _267  and  _268
REMARK  117  A    between atoms: _267  and  _270
REMARK  118  A    between atoms: _270  and  _271
REMARK  119  A    between atoms: _271  and  _272
REMARK  120  A    between atoms: _274  and  _276
REMARK  121  A    between atoms: _276  and  _277
REMARK  122  A    between atoms: _276  and  _279
REMARK  123  A    between atoms: _279  and  _280
REMARK  124  A    between atoms: _280  and  _281
REMARK  125  A    between atoms: _284  and  _286
REMARK  126  A    between atoms: _286  and  _287
REMARK  127  A    between atoms: _289  and  _291
REMARK  128  A    between atoms: _291  and  _292
REMARK  129  A    between atoms: _291  and  _294
REMARK  130  A    between atoms: _294  and  _295
REMARK  131  A    between atoms: _295  and  _296
REMARK  132  A    between atoms: _296  and  _297
REMARK  133  A    between atoms: _306  and  _308
REMARK  134  A    between atoms: _308  and  _309
REMARK  135  A    between atoms: _308  and  _311
REMARK  136  A    between atoms: _311  and  _312
REMARK  137  A    between atoms: _314  and  _316
REMARK  138  A    between atoms: _316  and  _317
REMARK  139  A    between atoms: _316  and  _319
REMARK  140  A    between atoms: _319  and  _320
REMARK  141  A    between atoms: _323  and  _325
REMARK  142  A    between atoms: _325  and  _326
REMARK  143  A    between atoms: _325  and  _328
REMARK  144  A    between atoms: _328  and  _329
REMARK  145  A    between atoms: _331  and  _333
REMARK  146  A    between atoms: _333  and  _334
REMARK  147  A    between atoms: _333  and  _336
REMARK  148  A    between atoms: _336  and  _337
REMARK  149  A    between atoms: _340  and  _342
REMARK  150  A    between atoms: _342  and  _343
REMARK  151  A    between atoms: _342  and  _345
REMARK  152  A    between atoms: _345  and  _346
REMARK  153  A    between atoms: _351  and  _353
REMARK  154  A    between atoms: _353  and  _354
REMARK  155  A    between atoms: _357  and  _359
REMARK  156  A    between atoms: _359  and  _360
REMARK  157  A    between atoms: _359  and  _362
REMARK  158  A    between atoms: _362  and  _363
REMARK  159  A    between atoms: _366  and  _368
REMARK  160  A    between atoms: _368  and  _369
REMARK  161  A    between atoms: _372  and  _374
REMARK  162  A    between atoms: _374  and  _375
REMARK  163  A    between atoms: _377  and  _379
REMARK  164  A    between atoms: _379  and  _380
REMARK  165  A    between atoms: _379  and  _382
REMARK  166  A    between atoms: _382  and  _383
REMARK  167  A    between atoms: _385  and  _387
REMARK  168  A    between atoms: _387  and  _388
REMARK  169  A    between atoms: _387  and  _390
REMARK  170  A    between atoms: _390  and  _391
REMARK  171  A    between atoms: _397  and  _399
REMARK  172  A    between atoms: _399  and  _400
REMARK  173  A    between atoms: _399  and  _402
REMARK  174  A    between atoms: _402  and  _403
REMARK  175  A    between atoms: _406  and  _408
REMARK  176  A    between atoms: _408  and  _409
REMARK  177  A    between atoms: _408  and  _411
REMARK  178  A    between atoms: _411  and  _412
REMARK  179  A    between atoms: _415  and  _417
REMARK  180  A    between atoms: _417  and  _418
REMARK  181  A    between atoms: _417  and  _420
REMARK  182  A    between atoms: _420  and  _421
REMARK  183  A    between atoms: _423  and  _425
REMARK  184  A    between atoms: _425  and  _426
REMARK  185  A    between atoms: _425  and  _428
REMARK  186  A    between atoms: _428  and  _429
REMARK  187  A    between atoms: _432  and  _434
REMARK  188  A    between atoms: _434  and  _435
REMARK  189  A    between atoms: _434  and  _437
REMARK  190  A    between atoms: _437  and  _438
REMARK  191  A    between atoms: _441  and  _443
REMARK  192  A    between atoms: _443  and  _444
REMARK  193  A    between atoms: _443  and  _446
REMARK  194  A    between atoms: _446  and  _447
REMARK  195  A    between atoms: _449  and  _451
REMARK  196  A    between atoms: _451  and  _452
REMARK  197  A    between atoms: _455  and  _457
REMARK  198  A    between atoms: _457  and  _458
REMARK  199  A    between atoms: _457  and  _460
REMARK  200  A    between atoms: _460  and  _461
REMARK  201  A    between atoms: _467  and  _469
REMARK  202  A    between atoms: _469  and  _470
REMARK  203  A    between atoms: _469  and  _472
REMARK  204  A    between atoms: _472  and  _473
REMARK  205  A    between atoms: _476  and  _478
REMARK  206  A    between atoms: _478  and  _479
REMARK  207  A    between atoms: _478  and  _481
REMARK  208  A    between atoms: _481  and  _482
REMARK  209  A    between atoms: _487  and  _489
REMARK  210  A    between atoms: _489  and  _490
REMARK  211  A    between atoms: _489  and  _492
REMARK  212  A    between atoms: _492  and  _493
REMARK  213  A    between atoms: _499  and  _501
REMARK  214  A    between atoms: _501  and  _502
REMARK  215  A    between atoms: _501  and  _504
REMARK  216  A    between atoms: _504  and  _505
REMARK  217  A    between atoms: _509  and  _510
REMARK  218  A    between atoms: _515  and  _517
REMARK  219  A    between atoms: _517  and  _518
REMARK  220  A    between atoms: _517  and  _520
REMARK  221  A    between atoms: _520  and  _521
REMARK  222  A    between atoms: _521  and  _522
REMARK  223  A    between atoms: _525  and  _527
REMARK  224  A    between atoms: _527  and  _528
REMARK  225  A    between atoms: _527  and  _530
REMARK  226  A    between atoms: _530  and  _531
REMARK                            x       y       z     vdW  Elec       q    Type
REMARK                         _______ _______ _______ _____ _____    ______ ____
ROOT
ATOM      1  CA  SER A   1      41.783  65.867  32.081  0.00  0.00    +0.163 C 
ENDROOT
BRANCH   1   2
ATOM      2  N   SER A   1      42.729  64.989  31.382  0.00  0.00    -0.237 NA
ATOM      3  H   SER A   1      43.339  65.392  30.642  0.00  0.00    +0.142 HD
ENDBRANCH   1   2
BRANCH   1   4
ATOM      4  C   SER A   1      40.346  65.408  31.834  0.00  0.00    +0.227 C 
ATOM      5  O   SER A   1      39.559  65.316  32.765  0.00  0.00    -0.287 OA
ENDBRANCH   1   4
BRANCH   1   6
ATOM      6  CB  SER A   1      41.975  67.326  31.655  0.00  0.00    +0.162 C 
BRANCH   6   7
ATOM      7  OG  SER A   1      43.218  67.816  32.134  0.00  0.00    -0.380 OA
ATOM      8  H   SER A   1      43.330  68.759  31.853  0.00  0.00    +0.211 HD
ENDBRANCH   6   7
ENDBRANCH   1   6
TORSDOF 4
REMARK  Name = ../refined-set-2016/4wkp/4wkp_pocket.pdb
REMARK  226 active torsions:
REMARK  status: ('A' for Active; 'I' for Inactive)
REMARK    1  A    between atoms: _1  and  _3
REMARK    2  A    between atoms: _3  and  _4
REMARK    3  A    between atoms: _6  and  _8
REMARK    4  A    between atoms: _8  and  _9
REMARK    5  A    between atoms: _12  and  _14
REMARK    6  A    between atoms: _14  and  _15
REMARK    7  A    between atoms: _14  and  _17
REMARK    8  A    between atoms: _17  and  _18
REMARK    9  A    between atoms: _18  and  _19
REMARK   10  A    between atoms: _21  and  _23
REMARK   11  A    between atoms: _23  and  _24
REMARK   12  A    between atoms: _23  and  _26
REMARK   13  A    between atoms: _26  and  _27
REMARK   14  A    between atoms: _27  and  _28
REMARK   15  A    between atoms: _31  and  _33
REMARK   16  A    between atoms: _33  and  _34
REMARK   17  A    between atoms: _33  and  _36
REMARK   18  A    between atoms: _36  and  _37
REMARK   19  A    between atoms: _37  and  _38
REMARK   20  A    between atoms: _41  and  _43
REMARK   21  A    between atoms: _43  and  _44
REMARK   22  A    between atoms: _43  and  _46
REMARK   23  A    between atoms: _46  and  _47
REMARK   24  A    between atoms: _49  and  _51
REMARK   25  A    between atoms: _51  and  _52
REMARK   26  A    between atoms: _51  and  _54
REMARK   27  A    between atoms: _54  and  _55
REMARK   28  A    between atoms: _55  and  _56
REMARK   29  A    between atoms: _56  and  _57
REMARK   30  A    between atoms: _57  and  _58
REMARK   31  A    between atoms: _62  and  _64
REMARK   32  A    between atoms: _64  and  _65
REMARK   33  A    between atoms: _64  and  _67
REMARK   34  A    between atoms: _67  and  _68
REMARK   35  A    between atoms: _71  and  _73
REMARK   36  A    between atoms: _73  and  _74
REMARK   37  A    between atoms: _76  and  _78
REMARK   38  A    between atoms: _78  and  _79
REMARK   39  A    between atoms: _78  and  _81
REMARK   40  A    between atoms: _81  and  _82
REMARK   41  A    between atoms: _88  and  _90
REMARK   42  A    between atoms: _90  and  _91
REMARK   43  A    between atoms: _93  and  _95
REMARK   44  A    between atoms: _95  and  _96
REMARK   45  A    between atoms: _95  and  _98
REMARK   46  A    between atoms: _101  and  _103
REMARK   47  A    between atoms: _103  and  _104
REMARK   48  A    between atoms: _107  and  _109
REMARK   49  A    between atoms: _109  and  _110
REMARK   50  A    between atoms: _112  and  _114
REMARK   51  A    between atoms: _114  and  _115
REMARK   52  A    between atoms: _114  and  _117
REMARK   53  A    between atoms: _117  and  _118
REMARK   54  A    between atoms: _120  and  _122
REMARK   55  A    between atoms: _122  and  _123
REMARK   56  A    between atoms: _122  and  _125
REMARK   57  A    between atoms: _125  and  _126
REMARK   58  A    between atoms: _129  and  _131
REMARK   59  A    between atoms: _131  and  _132
REMARK   60  A    between atoms: _131  and  _134
REMARK   61  A    between atoms: _134  and  _135
REMARK   62  A    between atoms: _140  and  _142
REMARK   63  A    between atoms: _142  and  _143
REMARK   64  A    between atoms: _146  and  _148
REMARK   65  A    between atoms: _148  and  _149
REMARK   66  A    between atoms: _148  and  _151
REMARK   67  A    between atoms: _151  and  _152
REMARK   68  A    between atoms: _154  and  _156
REMARK   69  A    between atoms: _156  and  _157
REMARK   70  A    between atoms: _159  and  _161
REMARK   71  A    between atoms: _161  and  _162
REMARK   72  A    between atoms: _161  and  _164
REMARK   73  A    between atoms: _164  and  _165
REMARK   74  A    between atoms: _168  and  _170
REMARK   75  A    between atoms: _170  and  _171
REMARK   76  A    between atoms: _170  and  _173
REMARK   77  A    between atoms: _173  and  _174
REMARK   78  A    between atoms: _174  and  _175
REMARK   79  A    between atoms: _180  and  _182
REMARK   80  A    between atoms: _182  and  _183
REMARK   81  A    between atoms: _182  and  _185
REMARK   82  A    between atoms: _185  and  _186
REMARK   83  A    between atoms: _192  and  _194
REMARK   84  A    between atoms: _194  and  _195
REMARK   85  A    between atoms: _194  and  _197
REMARK   86  A    between atoms: _200  and  _202
REMARK   87  A    between atoms: _202  and  _203
REMARK   88  A    between atoms: _202  and  _205
REMARK   89  A    between atoms: _205  and  _206
REMARK   90  A    between atoms: _211  and  _213
REMARK   91  A    between atoms: _213  and  _214
REMARK   92  A    between atoms: _213  and  _216
REMARK   93  A    between atoms: _216  and  _217
REMARK   94  A    between atoms: _219  and  _221
REMARK   95  A    between atoms: _221  and  _222
REMARK   96  A    between atoms: _221  and  _224
REMARK   97  A    between atoms: _224  and  _225
REMARK   98  A    between atoms: _225  and  _226
REMARK   99  A    between atoms: _226  and  _227
REMARK  100  A    between atoms: _227  and  _228
REMARK  101  A    between atoms: _232  and  _234
REMARK  102  A    between atoms: _234  and  _235
REMARK  103  A    between atoms: _234  and  _237
REMARK  104  A    between atoms: _237  and  _238
REMARK  105  A    between atoms: _241  and  _243
REMARK  106  A    between atoms: _243  and  _244
REMARK  107  A    between atoms: _247  and  _249
REMARK  108  A    between atoms: _249  and  _250
REMARK  109  A    between atoms: _249  and  _252
REMARK  110  A    between atoms: _255  and  _257
REMARK  111  A    between atoms: _257  and  _258
REMARK  112  A    between atoms: _257  and  _260
REMARK  113  A    between atoms: _260  and  _261
REMARK  114  A    between atoms: _261  and  _262
REMARK  115  A    between atoms: _265  and  _267
REMARK  116  A    between atoms: _267  and  _268
REMARK  117  A    between atoms: _267  and  _270
REMARK  118  A    between atoms: _270  and  _271
REMARK  119  A    between atoms: _271  and  _272
REMARK  120  A    between atoms: _274  and  _276
REMARK  121  A    between atoms: _276  and  _277
REMARK  122  A    between atoms: _276  and  _279
REMARK  123  A    between atoms: _279  and  _280
REMARK  124  A    between atoms: _280  and  _281
REMARK  125  A    between atoms: _284  and  _286
REMARK  126  A    between atoms: _286  and  _287
REMARK  127  A    between atoms: _289  and  _291
REMARK  128  A    between atoms: _291  and  _292
REMARK  129  A    between atoms: _291  and  _294
REMARK  130  A    between atoms: _294  and  _295
REMARK  131  A    between atoms: _295  and  _296
REMARK  132  A    between atoms: _296  and  _297
REMARK  133  A    between atoms: _306  and  _308
REMARK  134  A    between atoms: _308  and  _309
REMARK  135  A    between atoms: _308  and  _311
REMARK  136  A    between atoms: _311  and  _312
REMARK  137  A    between atoms: _314  and  _316
REMARK  138  A    between atoms: _316  and  _317
REMARK  139  A    between atoms: _316  and  _319
REMARK  140  A    between atoms: _319  and  _320
REMARK  141  A    between atoms: _323  and  _325
REMARK  142  A    between atoms: _325  and  _326
REMARK  143  A    between atoms: _325  and  _328
REMARK  144  A    between atoms: _328  and  _329
REMARK  145  A    between atoms: _331  and  _333
REMARK  146  A    between atoms: _333  and  _334
REMARK  147  A    between atoms: _333  and  _336
REMARK  148  A    between atoms: _336  and  _337
REMARK  149  A    between atoms: _340  and  _342
REMARK  150  A    between atoms: _342  and  _343
REMARK  151  A    between atoms: _342  and  _345
REMARK  152  A    between atoms: _345  and  _346
REMARK  153  A    between atoms: _351  and  _353
REMARK  154  A    between atoms: _353  and  _354
REMARK  155  A    between atoms: _357  and  _359
REMARK  156  A    between atoms: _359  and  _360
REMARK  157  A    between atoms: _359  and  _362
REMARK  158  A    between atoms: _362  and  _363
REMARK  159  A    between atoms: _366  and  _368
REMARK  160  A    between atoms: _368  and  _369
REMARK  161  A    between atoms: _372  and  _374
REMARK  162  A    between atoms: _374  and  _375
REMARK  163  A    between atoms: _377  and  _379
REMARK  164  A    between atoms: _379  and  _380
REMARK  165  A    between atoms: _379  and  _382
REMARK  166  A    between atoms: _382  and  _383
REMARK  167  A    between atoms: _385  and  _387
REMARK  168  A    between atoms: _387  and  _388
REMARK  169  A    between atoms: _387  and  _390
REMARK  170  A    between atoms: _390  and  _391
REMARK  171  A    between atoms: _397  and  _399
REMARK  172  A    between atoms: _399  and  _400
REMARK  173  A    between atoms: _399  and  _402
REMARK  174  A    between atoms: _402  and  _403
REMARK  175  A    between atoms: _406  and  _408
REMARK  176  A    between atoms: _408  and  _409
REMARK  177  A    between atoms: _408  and  _411
REMARK  178  A    between atoms: _411  and  _412
REMARK  179  A    between atoms: _415  and  _417
REMARK  180  A    between atoms: _417  and  _418
REMARK  181  A    between atoms: _417  and  _420
REMARK  182  A    between atoms: _420  and  _421
REMARK  183  A    between atoms: _423  and  _425
REMARK  184  A    between atoms: _425  and  _426
REMARK  185  A    between atoms: _425  and  _428
REMARK  186  A    between atoms: _428  and  _429
REMARK  187  A    between atoms: _432  and  _434
REMARK  188  A    between atoms: _434  and  _435
REMARK  189  A    between atoms: _434  and  _437
REMARK  190  A    between atoms: _437  and  _438
REMARK  191  A    between atoms: _441  and  _443
REMARK  192  A    between atoms: _443  and  _444
REMARK  193  A    between atoms: _443  and  _446
REMARK  194  A    between atoms: _446  and  _447
REMARK  195  A    between atoms: _449  and  _451
REMARK  196  A    between atoms: _451  and  _452
REMARK  197  A    between atoms: _455  and  _457
REMARK  198  A    between atoms: _457  and  _458
REMARK  199  A    between atoms: _457  and  _460
REMARK  200  A    between atoms: _460  and  _461
REMARK  201  A    between atoms: _467  and  _469
REMARK  202  A    between atoms: _469  and  _470
REMARK  203  A    between atoms: _469  and  _472
REMARK  204  A    between atoms: _472  and  _473
REMARK  205  A    between atoms: _476  and  _478
REMARK  206  A    between atoms: _478  and  _479
REMARK  207  A    between atoms: _478  and  _481
REMARK  208  A    between atoms: _481  and  _482
REMARK  209  A    between atoms: _487  and  _489
REMARK  210  A    between atoms: _489  and  _490
REMARK  211  A    between atoms: _489  and  _492
REMARK  212  A    between atoms: _492  and  _493
REMARK  213  A    between atoms: _499  and  _501
REMARK  214  A    between atoms: _501  and  _502
REMARK  215  A    between atoms: _501  and  _504
REMARK  216  A    between atoms: _504  and  _505
REMARK  217  A    between atoms: _509  and  _510
REMARK  218  A    between atoms: _515  and  _517
REMARK  219  A    between atoms: _517  and  _518
REMARK  220  A    between atoms: _517  and  _520
REMARK  221  A    between atoms: _520  and  _521
REMARK  222  A    between atoms: _521  and  _522
REMARK  223  A    between atoms: _525  and  _527
REMARK  224  A    between atoms: _527  and  _528
REMARK  225  A    between atoms: _527  and  _530
REMARK  226  A    between atoms: _530  and  _531
REMARK                            x       y       z     vdW  Elec       q    Type
REMARK                         _______ _______ _______ _____ _____    ______ ____
ROOT
ATOM      1  C   ALA A   4      44.500  78.539  18.301  0.00  0.00    +0.241 C 
ATOM      2  O   ALA A   4      45.620  78.064  18.501  0.00  0.00    -0.273 OA
ATOM      3  N   PHE A   5      43.584  77.922  17.568  0.00  0.00    -0.297 N 
ATOM      4  H   PHE A   5      42.640  78.350  17.478  0.00  0.00    +0.150 HD
ENDROOT
BRANCH   1   5
ATOM      5  CA  ALA A   4      44.104  79.861  18.938  0.00  0.00    +0.149 C 
ATOM      6  CB  ALA A   4      43.783  79.653  20.414  0.00  0.00    +0.031 C 
BRANCH   5   8
ATOM      7  C   SER A   3      43.049  80.794  16.937  0.00  0.00    +0.243 C 
ATOM      8  N   ALA A   4      42.976  80.508  18.238  0.00  0.00    -0.297 N 
ATOM      9  H   ALA A   4      42.112  80.744  18.767  0.00  0.00    +0.150 HD
ATOM     10  O   SER A   3      44.064  80.585  16.274  0.00  0.00    -0.273 OA
BRANCH   7  11
ATOM     11  CA  SER A   3      41.800  81.329  16.237  0.00  0.00    +0.178 C 
BRANCH  11  13
ATOM     12  C   LEU A   2      40.157  79.756  17.153  0.00  0.00    +0.241 C 
ATOM     13  N   SER A   3      40.580  81.012  16.976  0.00  0.00    -0.295 N 
ATOM     14  H   SER A   3      40.021  81.791  17.379  0.00  0.00    +0.150 HD
ATOM     15  O   LEU A   2      40.781  78.760  16.779  0.00  0.00    -0.273 OA
BRANCH  12  16
ATOM     16  CA  LEU A   2      38.842  79.589  17.915  0.00  0.00    +0.149 C 
BRANCH  16  19
ATOM     17  C   ASP A   1      37.618  81.635  18.514  0.00  0.00    +0.239 C 
ATOM     18  O   ASP A   1      37.871  81.534  19.720  0.00  0.00    -0.274 OA
ATOM     19  N   LEU A   2      37.967  80.724  17.609  0.00  0.00    -0.297 N 
ATOM     20  H   LEU A   2      37.602  80.822  16.640  0.00  0.00    +0.150 HD
BRANCH  17  21
ATOM     21  CA  ASP A   1      36.874  82.851  17.957  0.00  0.00    +0.156 C 
BRANCH  21  22
ATOM     22  N   ASP A   1      35.439  82.709  18.146  0.00  0.00    -0.238 NA
ATOM     23  H   ASP A   1      35.084  82.268  19.019  0.00  0.00    +0.142 HD
ENDBRANCH  21  22
BRANCH  21  24
ATOM     24  CB  ASP A   1      37.353  84.152  18.620  0.00  0.00    +0.140 C 
BRANCH  24  25
ATOM     25  CG  ASP A   1      38.821  84.411  18.414  0.00  0.00    +0.367 C 
ATOM     26  OD2 ASP A   1      39.292  85.513  18.779  0.00  0.00    -0.246 OA
ATOM     27  OD1 ASP A   1      39.507  83.513  17.912  0.00  0.00    -0.246 OA
ENDBRANCH  24  25
ENDBRANCH  21  24
ENDBRANCH  17  21
ENDBRANCH  16  19
BRANCH  16  28
ATOM     28  CB  LEU A   2      38.168  78.267  17.530  0.00  0.00    +0.029 C 
BRANCH  28  29
ATOM     29  CG  LEU A   2      36.955  77.860  18.381  0.00  0.00    +0.002 C 
ATOM     30  CD2 LEU A   2      37.309  77.691  19.836  0.00  0.00    +0.000 C 
ATOM     31  CD1 LEU A   2      36.303  76.600  17.835  0.00  0.00    +0.000 C 
ENDBRANCH  28  29
ENDBRANCH  16  28
ENDBRANCH  12  16
ENDBRANCH  11  13
BRANCH  11  32
ATOM     32  CB  SER A   3      41.905  82.836  15.945  0.00  0.00    +0.166 C 
BRANCH  32  33
ATOM     33  OG  SER A   3      42.089  83.586  17.118  0.00  0.00    -0.380 OA
ATOM     34  H   SER A   3      41.321  83.440  17.725  0.00  0.00    +0.211 HD
ENDBRANCH  32  33
ENDBRANCH  11  32
ENDBRANCH   7  11
ENDBRANCH   5   8
ENDBRANCH   1   5
BRANCH   3  35
ATOM     35  CA  PHE A   5      43.855  76.661  16.882  0.00  0.00    +0.153 C 
BRANCH  35  36
ATOM     36  C   PHE A   5      43.852  76.843  15.373  0.00  0.00    +0.241 C 
ATOM     37  N   ASP A   6      44.141  78.067  14.934  0.00  0.00    -0.297 N 
ATOM     38  H   ASP A   6      44.333  78.800  15.646  0.00  0.00    +0.150 HD
ATOM     39  O   PHE A   5      43.593  75.893  14.634  0.00  0.00    -0.273 OA
BRANCH  37  40
ATOM     40  CA  ASP A   6      44.209  78.459  13.518  0.00  0.00    +0.160 C 
BRANCH  40  41
ATOM     41  C   ASP A   6      42.898  78.397  12.743  0.00  0.00    +0.241 C 
ATOM     42  N   HIS A   7      41.768  78.377  13.443  0.00  0.00    -0.298 N 
ATOM     43  H   HIS A   7      41.790  78.337  14.482  0.00  0.00    +0.150 HD
ATOM     44  O   ASP A   6      42.903  78.389  11.507  0.00  0.00    -0.273 OA
BRANCH  42  45
ATOM     45  CA  HIS A   7      40.511  78.412  12.738  0.00  0.00    +0.143 C 
BRANCH  45  46
ATOM     46  C   HIS A   7      40.199  79.849  12.350  0.00  0.00    +0.227 C 
ATOM     47  O   HIS A   7      40.485  80.766  13.110  0.00  0.00    -0.286 OA
ENDBRANCH  45  46
BRANCH  45  48
ATOM     48  CB  HIS A   7      39.386  77.864  13.602  0.00  0.00    +0.075 C 
BRANCH  48  49
ATOM     49  CG  HIS A   7      39.546  76.415  13.938  0.00  0.00    +0.082 A 
ATOM     50  CD2 HIS A   7      39.652  75.784  15.129  0.00  0.00    +0.115 A 
ATOM     51  NE2 HIS A   7      39.775  74.442  14.868  0.00  0.00    -0.221 NA
ATOM     52  CE1 HIS A   7      39.758  74.258  13.561  0.00  0.00    +0.199 A 
ATOM     53  ND1 HIS A   7      39.617  75.435  12.975  0.00  0.00    -0.227 NA
ENDBRANCH  48  49
ENDBRANCH  45  48
ENDBRANCH  42  45
ENDBRANCH  40  41
BRANCH  40  54
ATOM     54  CB  ASP A   6      45.296  77.659  12.783  0.00  0.00    +0.143 C 
BRANCH  54  55
ATOM     55  CG  ASP A   6      46.690  78.012  13.257  0.00  0.00    +0.367 C 
ATOM     56  OD2 ASP A   6      46.887  79.123  13.796  0.00  0.00    -0.246 OA
ATOM     57  OD1 ASP A   6      47.599  77.172  13.087  0.00  0.00    -0.246 OA
ENDBRANCH  54  55
ENDBRANCH  40  54
ENDBRANCH  37  40
ENDBRANCH  35  36
BRANCH  35  58
ATOM     58  CB  PHE A   5      42.825  75.621  17.317  0.00  0.00    +0.055 C 
BRANCH  58  59
ATOM     59  CG  PHE A   5      42.912  75.281  18.769  0.00  0.00    -0.020 A 
ATOM     60  CD2 PHE A   5      42.151  75.956  19.703  0.00  0.00    -0.004 A 
ATOM     61  CE2 PHE A   5      42.251  75.643  21.045  0.00  0.00    -0.000 A 
ATOM     62  CZ  PHE A   5      43.126  74.657  21.467  0.00  0.00    -0.000 A 
ATOM     63  CE1 PHE A   5      43.899  73.985  20.543  0.00  0.00    -0.000 A 
ATOM     64  CD1 PHE A   5      43.780  74.294  19.206  0.00  0.00    -0.004 A 
ENDBRANCH  58  59
ENDBRANCH  35  58
ENDBRANCH   3  35
TORSDOF 26
REMARK  Name = ../refined-set-2016/4wkp/4wkp_pocket.pdb
REMARK  226 active torsions:
REMARK  status: ('A' for Active; 'I' for Inactive)
REMARK    1  A    between atoms: _1  and  _3
REMARK    2  A    between atoms: _3  and  _4
REMARK    3  A    between atoms: _6  and  _8
REMARK    4  A    between atoms: _8  and  _9
REMARK    5  A    between atoms: _12  and  _14
REMARK    6  A    between atoms: _14  and  _15
REMARK    7  A    between atoms: _14  and  _17
REMARK    8  A    between atoms: _17  and  _18
REMARK    9  A    between atoms: _18  and  _19
REMARK   10  A    between atoms: _21  and  _23
REMARK   11  A    between atoms: _23  and  _24
REMARK   12  A    between atoms: _23  and  _26
REMARK   13  A    between atoms: _26  and  _27
REMARK   14  A    between atoms: _27  and  _28
REMARK   15  A    between atoms: _31  and  _33
REMARK   16  A    between atoms: _33  and  _34
REMARK   17  A    between atoms: _33  and  _36
REMARK   18  A    between atoms: _36  and  _37
REMARK   19  A    between atoms: _37  and  _38
REMARK   20  A    between atoms: _41  and  _43
REMARK   21  A    between atoms: _43  and  _44
REMARK   22  A    between atoms: _43  and  _46
REMARK   23  A    between atoms: _46  and  _47
REMARK   24  A    between atoms: _49  and  _51
REMARK   25  A    between atoms: _51  and  _52
REMARK   26  A    between atoms: _51  and  _54
REMARK   27  A    between atoms: _54  and  _55
REMARK   28  A    between atoms: _55  and  _56
REMARK   29  A    between atoms: _56  and  _57
REMARK   30  A    between atoms: _57  and  _58
REMARK   31  A    between atoms: _62  and  _64
REMARK   32  A    between atoms: _64  and  _65
REMARK   33  A    between atoms: _64  and  _67
REMARK   34  A    between atoms: _67  and  _68
REMARK   35  A    between atoms: _71  and  _73
REMARK   36  A    between atoms: _73  and  _74
REMARK   37  A    between atoms: _76  and  _78
REMARK   38  A    between atoms: _78  and  _79
REMARK   39  A    between atoms: _78  and  _81
REMARK   40  A    between atoms: _81  and  _82
REMARK   41  A    between atoms: _88  and  _90
REMARK   42  A    between atoms: _90  and  _91
REMARK   43  A    between atoms: _93  and  _95
REMARK   44  A    between atoms: _95  and  _96
REMARK   45  A    between atoms: _95  and  _98
REMARK   46  A    between atoms: _101  and  _103
REMARK   47  A    between atoms: _103  and  _104
REMARK   48  A    between atoms: _107  and  _109
REMARK   49  A    between atoms: _109  and  _110
REMARK   50  A    between atoms: _112  and  _114
REMARK   51  A    between atoms: _114  and  _115
REMARK   52  A    between atoms: _114  and  _117
REMARK   53  A    between atoms: _117  and  _118
REMARK   54  A    between atoms: _120  and  _122
REMARK   55  A    between atoms: _122  and  _123
REMARK   56  A    between atoms: _122  and  _125
REMARK   57  A    between atoms: _125  and  _126
REMARK   58  A    between atoms: _129  and  _131
REMARK   59  A    between atoms: _131  and  _132
REMARK   60  A    between atoms: _131  and  _134
REMARK   61  A    between atoms: _134  and  _135
REMARK   62  A    between atoms: _140  and  _142
REMARK   63  A    between atoms: _142  and  _143
REMARK   64  A    between atoms: _146  and  _148
REMARK   65  A    between atoms: _148  and  _149
REMARK   66  A    between atoms: _148  and  _151
REMARK   67  A    between atoms: _151  and  _152
REMARK   68  A    between atoms: _154  and  _156
REMARK   69  A    between atoms: _156  and  _157
REMARK   70  A    between atoms: _159  and  _161
REMARK   71  A    between atoms: _161  and  _162
REMARK   72  A    between atoms: _161  and  _164
REMARK   73  A    between atoms: _164  and  _165
REMARK   74  A    between atoms: _168  and  _170
REMARK   75  A    between atoms: _170  and  _171
REMARK   76  A    between atoms: _170  and  _173
REMARK   77  A    between atoms: _173  and  _174
REMARK   78  A    between atoms: _174  and  _175
REMARK   79  A    between atoms: _180  and  _182
REMARK   80  A    between atoms: _182  and  _183
REMARK   81  A    between atoms: _182  and  _185
REMARK   82  A    between atoms: _185  and  _186
REMARK   83  A    between atoms: _192  and  _194
REMARK   84  A    between atoms: _194  and  _195
REMARK   85  A    between atoms: _194  and  _197
REMARK   86  A    between atoms: _200  and  _202
REMARK   87  A    between atoms: _202  and  _203
REMARK   88  A    between atoms: _202  and  _205
REMARK   89  A    between atoms: _205  and  _206
REMARK   90  A    between atoms: _211  and  _213
REMARK   91  A    between atoms: _213  and  _214
REMARK   92  A    between atoms: _213  and  _216
REMARK   93  A    between atoms: _216  and  _217
REMARK   94  A    between atoms: _219  and  _221
REMARK   95  A    between atoms: _221  and  _222
REMARK   96  A    between atoms: _221  and  _224
REMARK   97  A    between atoms: _224  and  _225
REMARK   98  A    between atoms: _225  and  _226
REMARK   99  A    between atoms: _226  and  _227
REMARK  100  A    between atoms: _227  and  _228
REMARK  101  A    between atoms: _232  and  _234
REMARK  102  A    between atoms: _234  and  _235
REMARK  103  A    between atoms: _234  and  _237
REMARK  104  A    between atoms: _237  and  _238
REMARK  105  A    between atoms: _241  and  _243
REMARK  106  A    between atoms: _243  and  _244
REMARK  107  A    between atoms: _247  and  _249
REMARK  108  A    between atoms: _249  and  _250
REMARK  109  A    between atoms: _249  and  _252
REMARK  110  A    between atoms: _255  and  _257
REMARK  111  A    between atoms: _257  and  _258
REMARK  112  A    between atoms: _257  and  _260
REMARK  113  A    between atoms: _260  and  _261
REMARK  114  A    between atoms: _261  and  _262
REMARK  115  A    between atoms: _265  and  _267
REMARK  116  A    between atoms: _267  and  _268
REMARK  117  A    between atoms: _267  and  _270
REMARK  118  A    between atoms: _270  and  _271
REMARK  119  A    between atoms: _271  and  _272
REMARK  120  A    between atoms: _274  and  _276
REMARK  121  A    between atoms: _276  and  _277
REMARK  122  A    between atoms: _276  and  _279
REMARK  123  A    between atoms: _279  and  _280
REMARK  124  A    between atoms: _280  and  _281
REMARK  125  A    between atoms: _284  and  _286
REMARK  126  A    between atoms: _286  and  _287
REMARK  127  A    between atoms: _289  and  _291
REMARK  128  A    between atoms: _291  and  _292
REMARK  129  A    between atoms: _291  and  _294
REMARK  130  A    between atoms: _294  and  _295
REMARK  131  A    between atoms: _295  and  _296
REMARK  132  A    between atoms: _296  and  _297
REMARK  133  A    between atoms: _306  and  _308
REMARK  134  A    between atoms: _308  and  _309
REMARK  135  A    between atoms: _308  and  _311
REMARK  136  A    between atoms: _311  and  _312
REMARK  137  A    between atoms: _314  and  _316
REMARK  138  A    between atoms: _316  and  _317
REMARK  139  A    between atoms: _316  and  _319
REMARK  140  A    between atoms: _319  and  _320
REMARK  141  A    between atoms: _323  and  _325
REMARK  142  A    between atoms: _325  and  _326
REMARK  143  A    between atoms: _325  and  _328
REMARK  144  A    between atoms: _328  and  _329
REMARK  145  A    between atoms: _331  and  _333
REMARK  146  A    between atoms: _333  and  _334
REMARK  147  A    between atoms: _333  and  _336
REMARK  148  A    between atoms: _336  and  _337
REMARK  149  A    between atoms: _340  and  _342
REMARK  150  A    between atoms: _342  and  _343
REMARK  151  A    between atoms: _342  and  _345
REMARK  152  A    between atoms: _345  and  _346
REMARK  153  A    between atoms: _351  and  _353
REMARK  154  A    between atoms: _353  and  _354
REMARK  155  A    between atoms: _357  and  _359
REMARK  156  A    between atoms: _359  and  _360
REMARK  157  A    between atoms: _359  and  _362
REMARK  158  A    between atoms: _362  and  _363
REMARK  159  A    between atoms: _366  and  _368
REMARK  160  A    between atoms: _368  and  _369
REMARK  161  A    between atoms: _372  and  _374
REMARK  162  A    between atoms: _374  and  _375
REMARK  163  A    between atoms: _377  and  _379
REMARK  164  A    between atoms: _379  and  _380
REMARK  165  A    between atoms: _379  and  _382
REMARK  166  A    between atoms: _382  and  _383
REMARK  167  A    between atoms: _385  and  _387
REMARK  168  A    between atoms: _387  and  _388
REMARK  169  A    between atoms: _387  and  _390
REMARK  170  A    between atoms: _390  and  _391
REMARK  171  A    between atoms: _397  and  _399
REMARK  172  A    between atoms: _399  and  _400
REMARK  173  A    between atoms: _399  and  _402
REMARK  174  A    between atoms: _402  and  _403
REMARK  175  A    between atoms: _406  and  _408
REMARK  176  A    between atoms: _408  and  _409
REMARK  177  A    between atoms: _408  and  _411
REMARK  178  A    between atoms: _411  and  _412
REMARK  179  A    between atoms: _415  and  _417
REMARK  180  A    between atoms: _417  and  _418
REMARK  181  A    between atoms: _417  and  _420
REMARK  182  A    between atoms: _420  and  _421
REMARK  183  A    between atoms: _423  and  _425
REMARK  184  A    between atoms: _425  and  _426
REMARK  185  A    between atoms: _425  and  _428
REMARK  186  A    between atoms: _428  and  _429
REMARK  187  A    between atoms: _432  and  _434
REMARK  188  A    between atoms: _434  and  _435
REMARK  189  A    between atoms: _434  and  _437
REMARK  190  A    between atoms: _437  and  _438
REMARK  191  A    between atoms: _441  and  _443
REMARK  192  A    between atoms: _443  and  _444
REMARK  193  A    between atoms: _443  and  _446
REMARK  194  A    between atoms: _446  and  _447
REMARK  195  A    between atoms: _449  and  _451
REMARK  196  A    between atoms: _451  and  _452
REMARK  197  A    between atoms: _455  and  _457
REMARK  198  A    between atoms: _457  and  _458
REMARK  199  A    between atoms: _457  and  _460
REMARK  200  A    between atoms: _460  and  _461
REMARK  201  A    between atoms: _467  and  _469
REMARK  202  A    between atoms: _469  and  _470
REMARK  203  A    between atoms: _469  and  _472
REMARK  204  A    between atoms: _472  and  _473
REMARK  205  A    between atoms: _476  and  _478
REMARK  206  A    between atoms: _478  and  _479
REMARK  207  A    between atoms: _478  and  _481
REMARK  208  A    between atoms: _481  and  _482
REMARK  209  A    between atoms: _487  and  _489
REMARK  210  A    between atoms: _489  and  _490
REMARK  211  A    between atoms: _489  and  _492
REMARK  212  A    between atoms: _492  and  _493
REMARK  213  A    between atoms: _499  and  _501
REMARK  214  A    between atoms: _501  and  _502
REMARK  215  A    between atoms: _501  and  _504
REMARK  216  A    between atoms: _504  and  _505
REMARK  217  A    between atoms: _509  and  _510
REMARK  218  A    between atoms: _515  and  _517
REMARK  219  A    between atoms: _517  and  _518
REMARK  220  A    between atoms: _517  and  _520
REMARK  221  A    between atoms: _520  and  _521
REMARK  222  A    between atoms: _521  and  _522
REMARK  223  A    between atoms: _525  and  _527
REMARK  224  A    between atoms: _527  and  _528
REMARK  225  A    between atoms: _527  and  _530
REMARK  226  A    between atoms: _530  and  _531
REMARK                            x       y       z     vdW  Elec       q    Type
REMARK                         _______ _______ _______ _____ _____    ______ ____
ROOT
ATOM      1  C   ILE A   2      33.593  74.564  14.145  0.00  0.00    +0.244 C 
ATOM      2  N   PRO A   3      34.507  73.716  14.649  0.00  0.00    -0.272 N 
ATOM      3  CD  PRO A   3      35.592  74.008  15.604  0.00  0.00    +0.094 C 
ATOM      4  CG  PRO A   3      36.408  72.732  15.617  0.00  0.00    +0.024 C 
ATOM      5  CB  PRO A   3      35.479  71.651  15.176  0.00  0.00    +0.031 C 
ATOM      6  CA  PRO A   3      34.585  72.347  14.143  0.00  0.00    +0.152 C 
ATOM      7  O   ILE A   2      32.873  74.272  13.201  0.00  0.00    -0.273 OA
ENDROOT
BRANCH   6   8
ATOM      8  C   PRO A   3      33.234  71.635  14.059  0.00  0.00    +0.241 C 
ATOM      9  O   PRO A   3      32.383  71.803  14.936  0.00  0.00    -0.273 OA
ATOM     10  N   GLU A   4      33.050  70.854  12.994  0.00  0.00    -0.297 N 
ATOM     11  H   GLU A   4      33.836  70.758  12.319  0.00  0.00    +0.150 HD
BRANCH  10  12
ATOM     12  CA  GLU A   4      31.807  70.119  12.712  0.00  0.00    +0.149 C 
BRANCH  12  13
ATOM     13  C   GLU A   4      30.655  71.059  12.321  0.00  0.00    +0.241 C 
ATOM     14  O   GLU A   4      29.501  70.656  12.264  0.00  0.00    -0.273 OA
ATOM     15  N   SER A   5      31.002  72.304  11.996  0.00  0.00    -0.296 N 
ATOM     16  H   SER A   5      31.994  72.589  12.125  0.00  0.00    +0.150 HD
BRANCH  15  17
ATOM     17  CA  SER A   5      30.058  73.291  11.467  0.00  0.00    +0.166 C 
BRANCH  17  18
ATOM     18  C   SER A   5      30.700  74.046  10.290  0.00  0.00    +0.229 C 
ATOM     19  O   SER A   5      31.564  73.485   9.590  0.00  0.00    -0.286 OA
ENDBRANCH  17  18
BRANCH  17  20
ATOM     20  CB  SER A   5      29.568  74.240  12.566  0.00  0.00    +0.165 C 
BRANCH  20  21
ATOM     21  OG  SER A   5      28.433  74.963  12.113  0.00  0.00    -0.380 OA
ATOM     22  H   SER A   5      28.124  75.573  12.829  0.00  0.00    +0.211 HD
ENDBRANCH  20  21
ENDBRANCH  17  20
ENDBRANCH  15  17
ENDBRANCH  12  13
BRANCH  12  23
ATOM     23  CB  GLU A   4      31.456  69.132  13.853  0.00  0.00    +0.041 C 
BRANCH  23  24
ATOM     24  CG  GLU A   4      32.635  68.225  14.230  0.00  0.00    +0.116 C 
BRANCH  24  25
ATOM     25  CD  GLU A   4      32.326  67.115  15.242  0.00  0.00    +0.365 C 
ATOM     26  OE2 GLU A   4      33.244  66.687  15.981  0.00  0.00    -0.246 OA
ATOM     27  OE1 GLU A   4      31.197  66.615  15.275  0.00  0.00    -0.246 OA
ENDBRANCH  24  25
ENDBRANCH  23  24
ENDBRANCH  12  23
ENDBRANCH  10  12
ENDBRANCH   6   8
BRANCH   1  28
ATOM     28  CA  ILE A   2      33.452  75.938  14.808  0.00  0.00    +0.149 C 
BRANCH  28  31
ATOM     29  C   PHE A   1      34.275  77.956  13.690  0.00  0.00    +0.239 C 
ATOM     30  O   PHE A   1      35.066  78.221  14.577  0.00  0.00    -0.274 OA
ATOM     31  N   ILE A   2      33.415  76.944  13.753  0.00  0.00    -0.297 N 
ATOM     32  H   ILE A   2      32.684  76.866  13.018  0.00  0.00    +0.150 HD
BRANCH  29  33
ATOM     33  CA  PHE A   1      34.239  78.775  12.418  0.00  0.00    +0.149 C 
BRANCH  33  34
ATOM     34  N   PHE A   1      34.259  80.220  12.670  0.00  0.00    -0.238 NA
ATOM     35  H   PHE A   1      35.174  80.709  12.739  0.00  0.00    +0.142 HD
ENDBRANCH  33  34
BRANCH  33  36
ATOM     36  CB  PHE A   1      35.444  78.349  11.565  0.00  0.00    +0.053 C 
BRANCH  36  37
ATOM     37  CG  PHE A   1      35.457  76.879  11.234  0.00  0.00    -0.020 A 
ATOM     38  CD2 PHE A   1      36.279  75.993  11.933  0.00  0.00    -0.004 A 
ATOM     39  CE2 PHE A   1      36.274  74.640  11.641  0.00  0.00    -0.000 A 
ATOM     40  CZ  PHE A   1      35.437  74.152  10.661  0.00  0.00    -0.000 A 
ATOM     41  CE1 PHE A   1      34.598  75.015   9.967  0.00  0.00    -0.000 A 
ATOM     42  CD1 PHE A   1      34.613  76.368  10.251  0.00  0.00    -0.004 A 
ENDBRANCH  36  37
ENDBRANCH  33  36
ENDBRANCH  29  33
ENDBRANCH  28  31
BRANCH  28  43
ATOM     43  CB  ILE A   2      32.168  75.962  15.643  0.00  0.00    +0.027 C 
ATOM     44  CG2 ILE A   2      32.194  74.877  16.711  0.00  0.00    +0.002 C 
BRANCH  43  45
ATOM     45  CG1 ILE A   2      32.017  77.342  16.279  0.00  0.00    +0.002 C 
ATOM     46  CD1 ILE A   2      30.733  77.538  17.027  0.00  0.00    +0.000 C 
ENDBRANCH  43  45
ENDBRANCH  28  43
ENDBRANCH   1  28
TORSDOF 18
REMARK  Name = ../refined-set-2016/4wkp/4wkp_pocket.pdb
REMARK  226 active torsions:
REMARK  status: ('A' for Active; 'I' for Inactive)
REMARK    1  A    between atoms: _1  and  _3
REMARK    2  A    between atoms: _3  and  _4
REMARK    3  A    between atoms: _6  and  _8
REMARK    4  A    between atoms: _8  and  _9
REMARK    5  A    between atoms: _12  and  _14
REMARK    6  A    between atoms: _14  and  _15
REMARK    7  A    between atoms: _14  and  _17
REMARK    8  A    between atoms: _17  and  _18
REMARK    9  A    between atoms: _18  and  _19
REMARK   10  A    between atoms: _21  and  _23
REMARK   11  A    between atoms: _23  and  _24
REMARK   12  A    between atoms: _23  and  _26
REMARK   13  A    between atoms: _26  and  _27
REMARK   14  A    between atoms: _27  and  _28
REMARK   15  A    between atoms: _31  and  _33
REMARK   16  A    between atoms: _33  and  _34
REMARK   17  A    between atoms: _33  and  _36
REMARK   18  A    between atoms: _36  and  _37
REMARK   19  A    between atoms: _37  and  _38
REMARK   20  A    between atoms: _41  and  _43
REMARK   21  A    between atoms: _43  and  _44
REMARK   22  A    between atoms: _43  and  _46
REMARK   23  A    between atoms: _46  and  _47
REMARK   24  A    between atoms: _49  and  _51
REMARK   25  A    between atoms: _51  and  _52
REMARK   26  A    between atoms: _51  and  _54
REMARK   27  A    between atoms: _54  and  _55
REMARK   28  A    between atoms: _55  and  _56
REMARK   29  A    between atoms: _56  and  _57
REMARK   30  A    between atoms: _57  and  _58
REMARK   31  A    between atoms: _62  and  _64
REMARK   32  A    between atoms: _64  and  _65
REMARK   33  A    between atoms: _64  and  _67
REMARK   34  A    between atoms: _67  and  _68
REMARK   35  A    between atoms: _71  and  _73
REMARK   36  A    between atoms: _73  and  _74
REMARK   37  A    between atoms: _76  and  _78
REMARK   38  A    between atoms: _78  and  _79
REMARK   39  A    between atoms: _78  and  _81
REMARK   40  A    between atoms: _81  and  _82
REMARK   41  A    between atoms: _88  and  _90
REMARK   42  A    between atoms: _90  and  _91
REMARK   43  A    between atoms: _93  and  _95
REMARK   44  A    between atoms: _95  and  _96
REMARK   45  A    between atoms: _95  and  _98
REMARK   46  A    between atoms: _101  and  _103
REMARK   47  A    between atoms: _103  and  _104
REMARK   48  A    between atoms: _107  and  _109
REMARK   49  A    between atoms: _109  and  _110
REMARK   50  A    between atoms: _112  and  _114
REMARK   51  A    between atoms: _114  and  _115
REMARK   52  A    between atoms: _114  and  _117
REMARK   53  A    between atoms: _117  and  _118
REMARK   54  A    between atoms: _120  and  _122
REMARK   55  A    between atoms: _122  and  _123
REMARK   56  A    between atoms: _122  and  _125
REMARK   57  A    between atoms: _125  and  _126
REMARK   58  A    between atoms: _129  and  _131
REMARK   59  A    between atoms: _131  and  _132
REMARK   60  A    between atoms: _131  and  _134
REMARK   61  A    between atoms: _134  and  _135
REMARK   62  A    between atoms: _140  and  _142
REMARK   63  A    between atoms: _142  and  _143
REMARK   64  A    between atoms: _146  and  _148
REMARK   65  A    between atoms: _148  and  _149
REMARK   66  A    between atoms: _148  and  _151
REMARK   67  A    between atoms: _151  and  _152
REMARK   68  A    between atoms: _154  and  _156
REMARK   69  A    between atoms: _156  and  _157
REMARK   70  A    between atoms: _159  and  _161
REMARK   71  A    between atoms: _161  and  _162
REMARK   72  A    between atoms: _161  and  _164
REMARK   73  A    between atoms: _164  and  _165
REMARK   74  A    between atoms: _168  and  _170
REMARK   75  A    between atoms: _170  and  _171
REMARK   76  A    between atoms: _170  and  _173
REMARK   77  A    between atoms: _173  and  _174
REMARK   78  A    between atoms: _174  and  _175
REMARK   79  A    between atoms: _180  and  _182
REMARK   80  A    between atoms: _182  and  _183
REMARK   81  A    between atoms: _182  and  _185
REMARK   82  A    between atoms: _185  and  _186
REMARK   83  A    between atoms: _192  and  _194
REMARK   84  A    between atoms: _194  and  _195
REMARK   85  A    between atoms: _194  and  _197
REMARK   86  A    between atoms: _200  and  _202
REMARK   87  A    between atoms: _202  and  _203
REMARK   88  A    between atoms: _202  and  _205
REMARK   89  A    between atoms: _205  and  _206
REMARK   90  A    between atoms: _211  and  _213
REMARK   91  A    between atoms: _213  and  _214
REMARK   92  A    between atoms: _213  and  _216
REMARK   93  A    between atoms: _216  and  _217
REMARK   94  A    between atoms: _219  and  _221
REMARK   95  A    between atoms: _221  and  _222
REMARK   96  A    between atoms: _221  and  _224
REMARK   97  A    between atoms: _224  and  _225
REMARK   98  A    between atoms: _225  and  _226
REMARK   99  A    between atoms: _226  and  _227
REMARK  100  A    between atoms: _227  and  _228
REMARK  101  A    between atoms: _232  and  _234
REMARK  102  A    between atoms: _234  and  _235
REMARK  103  A    between atoms: _234  and  _237
REMARK  104  A    between atoms: _237  and  _238
REMARK  105  A    between atoms: _241  and  _243
REMARK  106  A    between atoms: _243  and  _244
REMARK  107  A    between atoms: _247  and  _249
REMARK  108  A    between atoms: _249  and  _250
REMARK  109  A    between atoms: _249  and  _252
REMARK  110  A    between atoms: _255  and  _257
REMARK  111  A    between atoms: _257  and  _258
REMARK  112  A    between atoms: _257  and  _260
REMARK  113  A    between atoms: _260  and  _261
REMARK  114  A    between atoms: _261  and  _262
REMARK  115  A    between atoms: _265  and  _267
REMARK  116  A    between atoms: _267  and  _268
REMARK  117  A    between atoms: _267  and  _270
REMARK  118  A    between atoms: _270  and  _271
REMARK  119  A    between atoms: _271  and  _272
REMARK  120  A    between atoms: _274  and  _276
REMARK  121  A    between atoms: _276  and  _277
REMARK  122  A    between atoms: _276  and  _279
REMARK  123  A    between atoms: _279  and  _280
REMARK  124  A    between atoms: _280  and  _281
REMARK  125  A    between atoms: _284  and  _286
REMARK  126  A    between atoms: _286  and  _287
REMARK  127  A    between atoms: _289  and  _291
REMARK  128  A    between atoms: _291  and  _292
REMARK  129  A    between atoms: _291  and  _294
REMARK  130  A    between atoms: _294  and  _295
REMARK  131  A    between atoms: _295  and  _296
REMARK  132  A    between atoms: _296  and  _297
REMARK  133  A    between atoms: _306  and  _308
REMARK  134  A    between atoms: _308  and  _309
REMARK  135  A    between atoms: _308  and  _311
REMARK  136  A    between atoms: _311  and  _312
REMARK  137  A    between atoms: _314  and  _316
REMARK  138  A    between atoms: _316  and  _317
REMARK  139  A    between atoms: _316  and  _319
REMARK  140  A    between atoms: _319  and  _320
REMARK  141  A    between atoms: _323  and  _325
REMARK  142  A    between atoms: _325  and  _326
REMARK  143  A    between atoms: _325  and  _328
REMARK  144  A    between atoms: _328  and  _329
REMARK  145  A    between atoms: _331  and  _333
REMARK  146  A    between atoms: _333  and  _334
REMARK  147  A    between atoms: _333  and  _336
REMARK  148  A    between atoms: _336  and  _337
REMARK  149  A    between atoms: _340  and  _342
REMARK  150  A    between atoms: _342  and  _343
REMARK  151  A    between atoms: _342  and  _345
REMARK  152  A    between atoms: _345  and  _346
REMARK  153  A    between atoms: _351  and  _353
REMARK  154  A    between atoms: _353  and  _354
REMARK  155  A    between atoms: _357  and  _359
REMARK  156  A    between atoms: _359  and  _360
REMARK  157  A    between atoms: _359  and  _362
REMARK  158  A    between atoms: _362  and  _363
REMARK  159  A    between atoms: _366  and  _368
REMARK  160  A    between atoms: _368  and  _369
REMARK  161  A    between atoms: _372  and  _374
REMARK  162  A    between atoms: _374  and  _375
REMARK  163  A    between atoms: _377  and  _379
REMARK  164  A    between atoms: _379  and  _380
REMARK  165  A    between atoms: _379  and  _382
REMARK  166  A    between atoms: _382  and  _383
REMARK  167  A    between atoms: _385  and  _387
REMARK  168  A    between atoms: _387  and  _388
REMARK  169  A    between atoms: _387  and  _390
REMARK  170  A    between atoms: _390  and  _391
REMARK  171  A    between atoms: _397  and  _399
REMARK  172  A    between atoms: _399  and  _400
REMARK  173  A    between atoms: _399  and  _402
REMARK  174  A    between atoms: _402  and  _403
REMARK  175  A    between atoms: _406  and  _408
REMARK  176  A    between atoms: _408  and  _409
REMARK  177  A    between atoms: _408  and  _411
REMARK  178  A    between atoms: _411  and  _412
REMARK  179  A    between atoms: _415  and  _417
REMARK  180  A    between atoms: _417  and  _418
REMARK  181  A    between atoms: _417  and  _420
REMARK  182  A    between atoms: _420  and  _421
REMARK  183  A    between atoms: _423  and  _425
REMARK  184  A    between atoms: _425  and  _426
REMARK  185  A    between atoms: _425  and  _428
REMARK  186  A    between atoms: _428  and  _429
REMARK  187  A    between atoms: _432  and  _434
REMARK  188  A    between atoms: _434  and  _435
REMARK  189  A    between atoms: _434  and  _437
REMARK  190  A    between atoms: _437  and  _438
REMARK  191  A    between atoms: _441  and  _443
REMARK  192  A    between atoms: _443  and  _444
REMARK  193  A    between atoms: _443  and  _446
REMARK  194  A    between atoms: _446  and  _447
REMARK  195  A    between atoms: _449  and  _451
REMARK  196  A    between atoms: _451  and  _452
REMARK  197  A    between atoms: _455  and  _457
REMARK  198  A    between atoms: _457  and  _458
REMARK  199  A    between atoms: _457  and  _460
REMARK  200  A    between atoms: _460  and  _461
REMARK  201  A    between atoms: _467  and  _469
REMARK  202  A    between atoms: _469  and  _470
REMARK  203  A    between atoms: _469  and  _472
REMARK  204  A    between atoms: _472  and  _473
REMARK  205  A    between atoms: _476  and  _478
REMARK  206  A    between atoms: _478  and  _479
REMARK  207  A    between atoms: _478  and  _481
REMARK  208  A    between atoms: _481  and  _482
REMARK  209  A    between atoms: _487  and  _489
REMARK  210  A    between atoms: _489  and  _490
REMARK  211  A    between atoms: _489  and  _492
REMARK  212  A    between atoms: _492  and  _493
REMARK  213  A    between atoms: _499  and  _501
REMARK  214  A    between atoms: _501  and  _502
REMARK  215  A    between atoms: _501  and  _504
REMARK  216  A    between atoms: _504  and  _505
REMARK  217  A    between atoms: _509  and  _510
REMARK  218  A    between atoms: _515  and  _517
REMARK  219  A    between atoms: _517  and  _518
REMARK  220  A    between atoms: _517  and  _520
REMARK  221  A    between atoms: _520  and  _521
REMARK  222  A    between atoms: _521  and  _522
REMARK  223  A    between atoms: _525  and  _527
REMARK  224  A    between atoms: _527  and  _528
REMARK  225  A    between atoms: _527  and  _530
REMARK  226  A    between atoms: _530  and  _531
REMARK                            x       y       z     vdW  Elec       q    Type
REMARK                         _______ _______ _______ _____ _____    ______ ____
ROOT
ATOM      1  O   HOH     1      43.038  70.706  19.288  0.00  0.00    +0.000 OA
ENDROOT
TORSDOF 0
REMARK  Name = ../refined-set-2016/4wkp/4wkp_pocket.pdb
REMARK  226 active torsions:
REMARK  status: ('A' for Active; 'I' for Inactive)
REMARK    1  A    between atoms: _1  and  _3
REMARK    2  A    between atoms: _3  and  _4
REMARK    3  A    between atoms: _6  and  _8
REMARK    4  A    between atoms: _8  and  _9
REMARK    5  A    between atoms: _12  and  _14
REMARK    6  A    between atoms: _14  and  _15
REMARK    7  A    between atoms: _14  and  _17
REMARK    8  A    between atoms: _17  and  _18
REMARK    9  A    between atoms: _18  and  _19
REMARK   10  A    between atoms: _21  and  _23
REMARK   11  A    between atoms: _23  and  _24
REMARK   12  A    between atoms: _23  and  _26
REMARK   13  A    between atoms: _26  and  _27
REMARK   14  A    between atoms: _27  and  _28
REMARK   15  A    between atoms: _31  and  _33
REMARK   16  A    between atoms: _33  and  _34
REMARK   17  A    between atoms: _33  and  _36
REMARK   18  A    between atoms: _36  and  _37
REMARK   19  A    between atoms: _37  and  _38
REMARK   20  A    between atoms: _41  and  _43
REMARK   21  A    between atoms: _43  and  _44
REMARK   22  A    between atoms: _43  and  _46
REMARK   23  A    between atoms: _46  and  _47
REMARK   24  A    between atoms: _49  and  _51
REMARK   25  A    between atoms: _51  and  _52
REMARK   26  A    between atoms: _51  and  _54
REMARK   27  A    between atoms: _54  and  _55
REMARK   28  A    between atoms: _55  and  _56
REMARK   29  A    between atoms: _56  and  _57
REMARK   30  A    between atoms: _57  and  _58
REMARK   31  A    between atoms: _62  and  _64
REMARK   32  A    between atoms: _64  and  _65
REMARK   33  A    between atoms: _64  and  _67
REMARK   34  A    between atoms: _67  and  _68
REMARK   35  A    between atoms: _71  and  _73
REMARK   36  A    between atoms: _73  and  _74
REMARK   37  A    between atoms: _76  and  _78
REMARK   38  A    between atoms: _78  and  _79
REMARK   39  A    between atoms: _78  and  _81
REMARK   40  A    between atoms: _81  and  _82
REMARK   41  A    between atoms: _88  and  _90
REMARK   42  A    between atoms: _90  and  _91
REMARK   43  A    between atoms: _93  and  _95
REMARK   44  A    between atoms: _95  and  _96
REMARK   45  A    between atoms: _95  and  _98
REMARK   46  A    between atoms: _101  and  _103
REMARK   47  A    between atoms: _103  and  _104
REMARK   48  A    between atoms: _107  and  _109
REMARK   49  A    between atoms: _109  and  _110
REMARK   50  A    between atoms: _112  and  _114
REMARK   51  A    between atoms: _114  and  _115
REMARK   52  A    between atoms: _114  and  _117
REMARK   53  A    between atoms: _117  and  _118
REMARK   54  A    between atoms: _120  and  _122
REMARK   55  A    between atoms: _122  and  _123
REMARK   56  A    between atoms: _122  and  _125
REMARK   57  A    between atoms: _125  and  _126
REMARK   58  A    between atoms: _129  and  _131
REMARK   59  A    between atoms: _131  and  _132
REMARK   60  A    between atoms: _131  and  _134
REMARK   61  A    between atoms: _134  and  _135
REMARK   62  A    between atoms: _140  and  _142
REMARK   63  A    between atoms: _142  and  _143
REMARK   64  A    between atoms: _146  and  _148
REMARK   65  A    between atoms: _148  and  _149
REMARK   66  A    between atoms: _148  and  _151
REMARK   67  A    between atoms: _151  and  _152
REMARK   68  A    between atoms: _154  and  _156
REMARK   69  A    between atoms: _156  and  _157
REMARK   70  A    between atoms: _159  and  _161
REMARK   71  A    between atoms: _161  and  _162
REMARK   72  A    between atoms: _161  and  _164
REMARK   73  A    between atoms: _164  and  _165
REMARK   74  A    between atoms: _168  and  _170
REMARK   75  A    between atoms: _170  and  _171
REMARK   76  A    between atoms: _170  and  _173
REMARK   77  A    between atoms: _173  and  _174
REMARK   78  A    between atoms: _174  and  _175
REMARK   79  A    between atoms: _180  and  _182
REMARK   80  A    between atoms: _182  and  _183
REMARK   81  A    between atoms: _182  and  _185
REMARK   82  A    between atoms: _185  and  _186
REMARK   83  A    between atoms: _192  and  _194
REMARK   84  A    between atoms: _194  and  _195
REMARK   85  A    between atoms: _194  and  _197
REMARK   86  A    between atoms: _200  and  _202
REMARK   87  A    between atoms: _202  and  _203
REMARK   88  A    between atoms: _202  and  _205
REMARK   89  A    between atoms: _205  and  _206
REMARK   90  A    between atoms: _211  and  _213
REMARK   91  A    between atoms: _213  and  _214
REMARK   92  A    between atoms: _213  and  _216
REMARK   93  A    between atoms: _216  and  _217
REMARK   94  A    between atoms: _219  and  _221
REMARK   95  A    between atoms: _221  and  _222
REMARK   96  A    between atoms: _221  and  _224
REMARK   97  A    between atoms: _224  and  _225
REMARK   98  A    between atoms: _225  and  _226
REMARK   99  A    between atoms: _226  and  _227
REMARK  100  A    between atoms: _227  and  _228
REMARK  101  A    between atoms: _232  and  _234
REMARK  102  A    between atoms: _234  and  _235
REMARK  103  A    between atoms: _234  and  _237
REMARK  104  A    between atoms: _237  and  _238
REMARK  105  A    between atoms: _241  and  _243
REMARK  106  A    between atoms: _243  and  _244
REMARK  107  A    between atoms: _247  and  _249
REMARK  108  A    between atoms: _249  and  _250
REMARK  109  A    between atoms: _249  and  _252
REMARK  110  A    between atoms: _255  and  _257
REMARK  111  A    between atoms: _257  and  _258
REMARK  112  A    between atoms: _257  and  _260
REMARK  113  A    between atoms: _260  and  _261
REMARK  114  A    between atoms: _261  and  _262
REMARK  115  A    between atoms: _265  and  _267
REMARK  116  A    between atoms: _267  and  _268
REMARK  117  A    between atoms: _267  and  _270
REMARK  118  A    between atoms: _270  and  _271
REMARK  119  A    between atoms: _271  and  _272
REMARK  120  A    between atoms: _274  and  _276
REMARK  121  A    between atoms: _276  and  _277
REMARK  122  A    between atoms: _276  and  _279
REMARK  123  A    between atoms: _279  and  _280
REMARK  124  A    between atoms: _280  and  _281
REMARK  125  A    between atoms: _284  and  _286
REMARK  126  A    between atoms: _286  and  _287
REMARK  127  A    between atoms: _289  and  _291
REMARK  128  A    between atoms: _291  and  _292
REMARK  129  A    between atoms: _291  and  _294
REMARK  130  A    between atoms: _294  and  _295
REMARK  131  A    between atoms: _295  and  _296
REMARK  132  A    between atoms: _296  and  _297
REMARK  133  A    between atoms: _306  and  _308
REMARK  134  A    between atoms: _308  and  _309
REMARK  135  A    between atoms: _308  and  _311
REMARK  136  A    between atoms: _311  and  _312
REMARK  137  A    between atoms: _314  and  _316
REMARK  138  A    between atoms: _316  and  _317
REMARK  139  A    between atoms: _316  and  _319
REMARK  140  A    between atoms: _319  and  _320
REMARK  141  A    between atoms: _323  and  _325
REMARK  142  A    between atoms: _325  and  _326
REMARK  143  A    between atoms: _325  and  _328
REMARK  144  A    between atoms: _328  and  _329
REMARK  145  A    between atoms: _331  and  _333
REMARK  146  A    between atoms: _333  and  _334
REMARK  147  A    between atoms: _333  and  _336
REMARK  148  A    between atoms: _336  and  _337
REMARK  149  A    between atoms: _340  and  _342
REMARK  150  A    between atoms: _342  and  _343
REMARK  151  A    between atoms: _342  and  _345
REMARK  152  A    between atoms: _345  and  _346
REMARK  153  A    between atoms: _351  and  _353
REMARK  154  A    between atoms: _353  and  _354
REMARK  155  A    between atoms: _357  and  _359
REMARK  156  A    between atoms: _359  and  _360
REMARK  157  A    between atoms: _359  and  _362
REMARK  158  A    between atoms: _362  and  _363
REMARK  159  A    between atoms: _366  and  _368
REMARK  160  A    between atoms: _368  and  _369
REMARK  161  A    between atoms: _372  and  _374
REMARK  162  A    between atoms: _374  and  _375
REMARK  163  A    between atoms: _377  and  _379
REMARK  164  A    between atoms: _379  and  _380
REMARK  165  A    between atoms: _379  and  _382
REMARK  166  A    between atoms: _382  and  _383
REMARK  167  A    between atoms: _385  and  _387
REMARK  168  A    between atoms: _387  and  _388
REMARK  169  A    between atoms: _387  and  _390
REMARK  170  A    between atoms: _390  and  _391
REMARK  171  A    between atoms: _397  and  _399
REMARK  172  A    between atoms: _399  and  _400
REMARK  173  A    between atoms: _399  and  _402
REMARK  174  A    between atoms: _402  and  _403
REMARK  175  A    between atoms: _406  and  _408
REMARK  176  A    between atoms: _408  and  _409
REMARK  177  A    between atoms: _408  and  _411
REMARK  178  A    between atoms: _411  and  _412
REMARK  179  A    between atoms: _415  and  _417
REMARK  180  A    between atoms: _417  and  _418
REMARK  181  A    between atoms: _417  and  _420
REMARK  182  A    between atoms: _420  and  _421
REMARK  183  A    between atoms: _423  and  _425
REMARK  184  A    between atoms: _425  and  _426
REMARK  185  A    between atoms: _425  and  _428
REMARK  186  A    between atoms: _428  and  _429
REMARK  187  A    between atoms: _432  and  _434
REMARK  188  A    between atoms: _434  and  _435
REMARK  189  A    between atoms: _434  and  _437
REMARK  190  A    between atoms: _437  and  _438
REMARK  191  A    between atoms: _441  and  _443
REMARK  192  A    between atoms: _443  and  _444
REMARK  193  A    between atoms: _443  and  _446
REMARK  194  A    between atoms: _446  and  _447
REMARK  195  A    between atoms: _449  and  _451
REMARK  196  A    between atoms: _451  and  _452
REMARK  197  A    between atoms: _455  and  _457
REMARK  198  A    between atoms: _457  and  _458
REMARK  199  A    between atoms: _457  and  _460
REMARK  200  A    between atoms: _460  and  _461
REMARK  201  A    between atoms: _467  and  _469
REMARK  202  A    between atoms: _469  and  _470
REMARK  203  A    between atoms: _469  and  _472
REMARK  204  A    between atoms: _472  and  _473
REMARK  205  A    between atoms: _476  and  _478
REMARK  206  A    between atoms: _478  and  _479
REMARK  207  A    between atoms: _478  and  _481
REMARK  208  A    between atoms: _481  and  _482
REMARK  209  A    between atoms: _487  and  _489
REMARK  210  A    between atoms: _489  and  _490
REMARK  211  A    between atoms: _489  and  _492
REMARK  212  A    between atoms: _492  and  _493
REMARK  213  A    between atoms: _499  and  _501
REMARK  214  A    between atoms: _501  and  _502
REMARK  215  A    between atoms: _501  and  _504
REMARK  216  A    between atoms: _504  and  _505
REMARK  217  A    between atoms: _509  and  _510
REMARK  218  A    between atoms: _515  and  _517
REMARK  219  A    between atoms: _517  and  _518
REMARK  220  A    between atoms: _517  and  _520
REMARK  221  A    between atoms: _520  and  _521
REMARK  222  A    between atoms: _521  and  _522
REMARK  223  A    between atoms: _525  and  _527
REMARK  224  A    between atoms: _527  and  _528
REMARK  225  A    between atoms: _527  and  _530
REMARK  226  A    between atoms: _530  and  _531
REMARK                            x       y       z     vdW  Elec       q    Type
REMARK                         _______ _______ _______ _____ _____    ______ ____
ROOT
ATOM      1  O   HOH     1      46.005  71.693  17.464  0.00  0.00    +0.000 OA
ENDROOT
TORSDOF 0
REMARK  Name = ../refined-set-2016/4wkp/4wkp_pocket.pdb
REMARK  226 active torsions:
REMARK  status: ('A' for Active; 'I' for Inactive)
REMARK    1  A    between atoms: _1  and  _3
REMARK    2  A    between atoms: _3  and  _4
REMARK    3  A    between atoms: _6  and  _8
REMARK    4  A    between atoms: _8  and  _9
REMARK    5  A    between atoms: _12  and  _14
REMARK    6  A    between atoms: _14  and  _15
REMARK    7  A    between atoms: _14  and  _17
REMARK    8  A    between atoms: _17  and  _18
REMARK    9  A    between atoms: _18  and  _19
REMARK   10  A    between atoms: _21  and  _23
REMARK   11  A    between atoms: _23  and  _24
REMARK   12  A    between atoms: _23  and  _26
REMARK   13  A    between atoms: _26  and  _27
REMARK   14  A    between atoms: _27  and  _28
REMARK   15  A    between atoms: _31  and  _33
REMARK   16  A    between atoms: _33  and  _34
REMARK   17  A    between atoms: _33  and  _36
REMARK   18  A    between atoms: _36  and  _37
REMARK   19  A    between atoms: _37  and  _38
REMARK   20  A    between atoms: _41  and  _43
REMARK   21  A    between atoms: _43  and  _44
REMARK   22  A    between atoms: _43  and  _46
REMARK   23  A    between atoms: _46  and  _47
REMARK   24  A    between atoms: _49  and  _51
REMARK   25  A    between atoms: _51  and  _52
REMARK   26  A    between atoms: _51  and  _54
REMARK   27  A    between atoms: _54  and  _55
REMARK   28  A    between atoms: _55  and  _56
REMARK   29  A    between atoms: _56  and  _57
REMARK   30  A    between atoms: _57  and  _58
REMARK   31  A    between atoms: _62  and  _64
REMARK   32  A    between atoms: _64  and  _65
REMARK   33  A    between atoms: _64  and  _67
REMARK   34  A    between atoms: _67  and  _68
REMARK   35  A    between atoms: _71  and  _73
REMARK   36  A    between atoms: _73  and  _74
REMARK   37  A    between atoms: _76  and  _78
REMARK   38  A    between atoms: _78  and  _79
REMARK   39  A    between atoms: _78  and  _81
REMARK   40  A    between atoms: _81  and  _82
REMARK   41  A    between atoms: _88  and  _90
REMARK   42  A    between atoms: _90  and  _91
REMARK   43  A    between atoms: _93  and  _95
REMARK   44  A    between atoms: _95  and  _96
REMARK   45  A    between atoms: _95  and  _98
REMARK   46  A    between atoms: _101  and  _103
REMARK   47  A    between atoms: _103  and  _104
REMARK   48  A    between atoms: _107  and  _109
REMARK   49  A    between atoms: _109  and  _110
REMARK   50  A    between atoms: _112  and  _114
REMARK   51  A    between atoms: _114  and  _115
REMARK   52  A    between atoms: _114  and  _117
REMARK   53  A    between atoms: _117  and  _118
REMARK   54  A    between atoms: _120  and  _122
REMARK   55  A    between atoms: _122  and  _123
REMARK   56  A    between atoms: _122  and  _125
REMARK   57  A    between atoms: _125  and  _126
REMARK   58  A    between atoms: _129  and  _131
REMARK   59  A    between atoms: _131  and  _132
REMARK   60  A    between atoms: _131  and  _134
REMARK   61  A    between atoms: _134  and  _135
REMARK   62  A    between atoms: _140  and  _142
REMARK   63  A    between atoms: _142  and  _143
REMARK   64  A    between atoms: _146  and  _148
REMARK   65  A    between atoms: _148  and  _149
REMARK   66  A    between atoms: _148  and  _151
REMARK   67  A    between atoms: _151  and  _152
REMARK   68  A    between atoms: _154  and  _156
REMARK   69  A    between atoms: _156  and  _157
REMARK   70  A    between atoms: _159  and  _161
REMARK   71  A    between atoms: _161  and  _162
REMARK   72  A    between atoms: _161  and  _164
REMARK   73  A    between atoms: _164  and  _165
REMARK   74  A    between atoms: _168  and  _170
REMARK   75  A    between atoms: _170  and  _171
REMARK   76  A    between atoms: _170  and  _173
REMARK   77  A    between atoms: _173  and  _174
REMARK   78  A    between atoms: _174  and  _175
REMARK   79  A    between atoms: _180  and  _182
REMARK   80  A    between atoms: _182  and  _183
REMARK   81  A    between atoms: _182  and  _185
REMARK   82  A    between atoms: _185  and  _186
REMARK   83  A    between atoms: _192  and  _194
REMARK   84  A    between atoms: _194  and  _195
REMARK   85  A    between atoms: _194  and  _197
REMARK   86  A    between atoms: _200  and  _202
REMARK   87  A    between atoms: _202  and  _203
REMARK   88  A    between atoms: _202  and  _205
REMARK   89  A    between atoms: _205  and  _206
REMARK   90  A    between atoms: _211  and  _213
REMARK   91  A    between atoms: _213  and  _214
REMARK   92  A    between atoms: _213  and  _216
REMARK   93  A    between atoms: _216  and  _217
REMARK   94  A    between atoms: _219  and  _221
REMARK   95  A    between atoms: _221  and  _222
REMARK   96  A    between atoms: _221  and  _224
REMARK   97  A    between atoms: _224  and  _225
REMARK   98  A    between atoms: _225  and  _226
REMARK   99  A    between atoms: _226  and  _227
REMARK  100  A    between atoms: _227  and  _228
REMARK  101  A    between atoms: _232  and  _234
REMARK  102  A    between atoms: _234  and  _235
REMARK  103  A    between atoms: _234  and  _237
REMARK  104  A    between atoms: _237  and  _238
REMARK  105  A    between atoms: _241  and  _243
REMARK  106  A    between atoms: _243  and  _244
REMARK  107  A    between atoms: _247  and  _249
REMARK  108  A    between atoms: _249  and  _250
REMARK  109  A    between atoms: _249  and  _252
REMARK  110  A    between atoms: _255  and  _257
REMARK  111  A    between atoms: _257  and  _258
REMARK  112  A    between atoms: _257  and  _260
REMARK  113  A    between atoms: _260  and  _261
REMARK  114  A    between atoms: _261  and  _262
REMARK  115  A    between atoms: _265  and  _267
REMARK  116  A    between atoms: _267  and  _268
REMARK  117  A    between atoms: _267  and  _270
REMARK  118  A    between atoms: _270  and  _271
REMARK  119  A    between atoms: _271  and  _272
REMARK  120  A    between atoms: _274  and  _276
REMARK  121  A    between atoms: _276  and  _277
REMARK  122  A    between atoms: _276  and  _279
REMARK  123  A    between atoms: _279  and  _280
REMARK  124  A    between atoms: _280  and  _281
REMARK  125  A    between atoms: _284  and  _286
REMARK  126  A    between atoms: _286  and  _287
REMARK  127  A    between atoms: _289  and  _291
REMARK  128  A    between atoms: _291  and  _292
REMARK  129  A    between atoms: _291  and  _294
REMARK  130  A    between atoms: _294  and  _295
REMARK  131  A    between atoms: _295  and  _296
REMARK  132  A    between atoms: _296  and  _297
REMARK  133  A    between atoms: _306  and  _308
REMARK  134  A    between atoms: _308  and  _309
REMARK  135  A    between atoms: _308  and  _311
REMARK  136  A    between atoms: _311  and  _312
REMARK  137  A    between atoms: _314  and  _316
REMARK  138  A    between atoms: _316  and  _317
REMARK  139  A    between atoms: _316  and  _319
REMARK  140  A    between atoms: _319  and  _320
REMARK  141  A    between atoms: _323  and  _325
REMARK  142  A    between atoms: _325  and  _326
REMARK  143  A    between atoms: _325  and  _328
REMARK  144  A    between atoms: _328  and  _329
REMARK  145  A    between atoms: _331  and  _333
REMARK  146  A    between atoms: _333  and  _334
REMARK  147  A    between atoms: _333  and  _336
REMARK  148  A    between atoms: _336  and  _337
REMARK  149  A    between atoms: _340  and  _342
REMARK  150  A    between atoms: _342  and  _343
REMARK  151  A    between atoms: _342  and  _345
REMARK  152  A    between atoms: _345  and  _346
REMARK  153  A    between atoms: _351  and  _353
REMARK  154  A    between atoms: _353  and  _354
REMARK  155  A    between atoms: _357  and  _359
REMARK  156  A    between atoms: _359  and  _360
REMARK  157  A    between atoms: _359  and  _362
REMARK  158  A    between atoms: _362  and  _363
REMARK  159  A    between atoms: _366  and  _368
REMARK  160  A    between atoms: _368  and  _369
REMARK  161  A    between atoms: _372  and  _374
REMARK  162  A    between atoms: _374  and  _375
REMARK  163  A    between atoms: _377  and  _379
REMARK  164  A    between atoms: _379  and  _380
REMARK  165  A    between atoms: _379  and  _382
REMARK  166  A    between atoms: _382  and  _383
REMARK  167  A    between atoms: _385  and  _387
REMARK  168  A    between atoms: _387  and  _388
REMARK  169  A    between atoms: _387  and  _390
REMARK  170  A    between atoms: _390  and  _391
REMARK  171  A    between atoms: _397  and  _399
REMARK  172  A    between atoms: _399  and  _400
REMARK  173  A    between atoms: _399  and  _402
REMARK  174  A    between atoms: _402  and  _403
REMARK  175  A    between atoms: _406  and  _408
REMARK  176  A    between atoms: _408  and  _409
REMARK  177  A    between atoms: _408  and  _411
REMARK  178  A    between atoms: _411  and  _412
REMARK  179  A    between atoms: _415  and  _417
REMARK  180  A    between atoms: _417  and  _418
REMARK  181  A    between atoms: _417  and  _420
REMARK  182  A    between atoms: _420  and  _421
REMARK  183  A    between atoms: _423  and  _425
REMARK  184  A    between atoms: _425  and  _426
REMARK  185  A    between atoms: _425  and  _428
REMARK  186  A    between atoms: _428  and  _429
REMARK  187  A    between atoms: _432  and  _434
REMARK  188  A    between atoms: _434  and  _435
REMARK  189  A    between atoms: _434  and  _437
REMARK  190  A    between atoms: _437  and  _438
REMARK  191  A    between atoms: _441  and  _443
REMARK  192  A    between atoms: _443  and  _444
REMARK  193  A    between atoms: _443  and  _446
REMARK  194  A    between atoms: _446  and  _447
REMARK  195  A    between atoms: _449  and  _451
REMARK  196  A    between atoms: _451  and  _452
REMARK  197  A    between atoms: _455  and  _457
REMARK  198  A    between atoms: _457  and  _458
REMARK  199  A    between atoms: _457  and  _460
REMARK  200  A    between atoms: _460  and  _461
REMARK  201  A    between atoms: _467  and  _469
REMARK  202  A    between atoms: _469  and  _470
REMARK  203  A    between atoms: _469  and  _472
REMARK  204  A    between atoms: _472  and  _473
REMARK  205  A    between atoms: _476  and  _478
REMARK  206  A    between atoms: _478  and  _479
REMARK  207  A    between atoms: _478  and  _481
REMARK  208  A    between atoms: _481  and  _482
REMARK  209  A    between atoms: _487  and  _489
REMARK  210  A    between atoms: _489  and  _490
REMARK  211  A    between atoms: _489  and  _492
REMARK  212  A    between atoms: _492  and  _493
REMARK  213  A    between atoms: _499  and  _501
REMARK  214  A    between atoms: _501  and  _502
REMARK  215  A    between atoms: _501  and  _504
REMARK  216  A    between atoms: _504  and  _505
REMARK  217  A    between atoms: _509  and  _510
REMARK  218  A    between atoms: _515  and  _517
REMARK  219  A    between atoms: _517  and  _518
REMARK  220  A    between atoms: _517  and  _520
REMARK  221  A    between atoms: _520  and  _521
REMARK  222  A    between atoms: _521  and  _522
REMARK  223  A    between atoms: _525  and  _527
REMARK  224  A    between atoms: _527  and  _528
REMARK  225  A    between atoms: _527  and  _530
REMARK  226  A    between atoms: _530  and  _531
REMARK                            x       y       z     vdW  Elec       q    Type
REMARK                         _______ _______ _______ _____ _____    ______ ____
ROOT
ATOM      1  O   HOH     1      37.166  63.521  17.365  0.00  0.00    +0.000 OA
ENDROOT
TORSDOF 0
REMARK  Name = ../refined-set-2016/4wkp/4wkp_pocket.pdb
REMARK  226 active torsions:
REMARK  status: ('A' for Active; 'I' for Inactive)
REMARK    1  A    between atoms: _1  and  _3
REMARK    2  A    between atoms: _3  and  _4
REMARK    3  A    between atoms: _6  and  _8
REMARK    4  A    between atoms: _8  and  _9
REMARK    5  A    between atoms: _12  and  _14
REMARK    6  A    between atoms: _14  and  _15
REMARK    7  A    between atoms: _14  and  _17
REMARK    8  A    between atoms: _17  and  _18
REMARK    9  A    between atoms: _18  and  _19
REMARK   10  A    between atoms: _21  and  _23
REMARK   11  A    between atoms: _23  and  _24
REMARK   12  A    between atoms: _23  and  _26
REMARK   13  A    between atoms: _26  and  _27
REMARK   14  A    between atoms: _27  and  _28
REMARK   15  A    between atoms: _31  and  _33
REMARK   16  A    between atoms: _33  and  _34
REMARK   17  A    between atoms: _33  and  _36
REMARK   18  A    between atoms: _36  and  _37
REMARK   19  A    between atoms: _37  and  _38
REMARK   20  A    between atoms: _41  and  _43
REMARK   21  A    between atoms: _43  and  _44
REMARK   22  A    between atoms: _43  and  _46
REMARK   23  A    between atoms: _46  and  _47
REMARK   24  A    between atoms: _49  and  _51
REMARK   25  A    between atoms: _51  and  _52
REMARK   26  A    between atoms: _51  and  _54
REMARK   27  A    between atoms: _54  and  _55
REMARK   28  A    between atoms: _55  and  _56
REMARK   29  A    between atoms: _56  and  _57
REMARK   30  A    between atoms: _57  and  _58
REMARK   31  A    between atoms: _62  and  _64
REMARK   32  A    between atoms: _64  and  _65
REMARK   33  A    between atoms: _64  and  _67
REMARK   34  A    between atoms: _67  and  _68
REMARK   35  A    between atoms: _71  and  _73
REMARK   36  A    between atoms: _73  and  _74
REMARK   37  A    between atoms: _76  and  _78
REMARK   38  A    between atoms: _78  and  _79
REMARK   39  A    between atoms: _78  and  _81
REMARK   40  A    between atoms: _81  and  _82
REMARK   41  A    between atoms: _88  and  _90
REMARK   42  A    between atoms: _90  and  _91
REMARK   43  A    between atoms: _93  and  _95
REMARK   44  A    between atoms: _95  and  _96
REMARK   45  A    between atoms: _95  and  _98
REMARK   46  A    between atoms: _101  and  _103
REMARK   47  A    between atoms: _103  and  _104
REMARK   48  A    between atoms: _107  and  _109
REMARK   49  A    between atoms: _109  and  _110
REMARK   50  A    between atoms: _112  and  _114
REMARK   51  A    between atoms: _114  and  _115
REMARK   52  A    between atoms: _114  and  _117
REMARK   53  A    between atoms: _117  and  _118
REMARK   54  A    between atoms: _120  and  _122
REMARK   55  A    between atoms: _122  and  _123
REMARK   56  A    between atoms: _122  and  _125
REMARK   57  A    between atoms: _125  and  _126
REMARK   58  A    between atoms: _129  and  _131
REMARK   59  A    between atoms: _131  and  _132
REMARK   60  A    between atoms: _131  and  _134
REMARK   61  A    between atoms: _134  and  _135
REMARK   62  A    between atoms: _140  and  _142
REMARK   63  A    between atoms: _142  and  _143
REMARK   64  A    between atoms: _146  and  _148
REMARK   65  A    between atoms: _148  and  _149
REMARK   66  A    between atoms: _148  and  _151
REMARK   67  A    between atoms: _151  and  _152
REMARK   68  A    between atoms: _154  and  _156
REMARK   69  A    between atoms: _156  and  _157
REMARK   70  A    between atoms: _159  and  _161
REMARK   71  A    between atoms: _161  and  _162
REMARK   72  A    between atoms: _161  and  _164
REMARK   73  A    between atoms: _164  and  _165
REMARK   74  A    between atoms: _168  and  _170
REMARK   75  A    between atoms: _170  and  _171
REMARK   76  A    between atoms: _170  and  _173
REMARK   77  A    between atoms: _173  and  _174
REMARK   78  A    between atoms: _174  and  _175
REMARK   79  A    between atoms: _180  and  _182
REMARK   80  A    between atoms: _182  and  _183
REMARK   81  A    between atoms: _182  and  _185
REMARK   82  A    between atoms: _185  and  _186
REMARK   83  A    between atoms: _192  and  _194
REMARK   84  A    between atoms: _194  and  _195
REMARK   85  A    between atoms: _194  and  _197
REMARK   86  A    between atoms: _200  and  _202
REMARK   87  A    between atoms: _202  and  _203
REMARK   88  A    between atoms: _202  and  _205
REMARK   89  A    between atoms: _205  and  _206
REMARK   90  A    between atoms: _211  and  _213
REMARK   91  A    between atoms: _213  and  _214
REMARK   92  A    between atoms: _213  and  _216
REMARK   93  A    between atoms: _216  and  _217
REMARK   94  A    between atoms: _219  and  _221
REMARK   95  A    between atoms: _221  and  _222
REMARK   96  A    between atoms: _221  and  _224
REMARK   97  A    between atoms: _224  and  _225
REMARK   98  A    between atoms: _225  and  _226
REMARK   99  A    between atoms: _226  and  _227
REMARK  100  A    between atoms: _227  and  _228
REMARK  101  A    between atoms: _232  and  _234
REMARK  102  A    between atoms: _234  and  _235
REMARK  103  A    between atoms: _234  and  _237
REMARK  104  A    between atoms: _237  and  _238
REMARK  105  A    between atoms: _241  and  _243
REMARK  106  A    between atoms: _243  and  _244
REMARK  107  A    between atoms: _247  and  _249
REMARK  108  A    between atoms: _249  and  _250
REMARK  109  A    between atoms: _249  and  _252
REMARK  110  A    between atoms: _255  and  _257
REMARK  111  A    between atoms: _257  and  _258
REMARK  112  A    between atoms: _257  and  _260
REMARK  113  A    between atoms: _260  and  _261
REMARK  114  A    between atoms: _261  and  _262
REMARK  115  A    between atoms: _265  and  _267
REMARK  116  A    between atoms: _267  and  _268
REMARK  117  A    between atoms: _267  and  _270
REMARK  118  A    between atoms: _270  and  _271
REMARK  119  A    between atoms: _271  and  _272
REMARK  120  A    between atoms: _274  and  _276
REMARK  121  A    between atoms: _276  and  _277
REMARK  122  A    between atoms: _276  and  _279
REMARK  123  A    between atoms: _279  and  _280
REMARK  124  A    between atoms: _280  and  _281
REMARK  125  A    between atoms: _284  and  _286
REMARK  126  A    between atoms: _286  and  _287
REMARK  127  A    between atoms: _289  and  _291
REMARK  128  A    between atoms: _291  and  _292
REMARK  129  A    between atoms: _291  and  _294
REMARK  130  A    between atoms: _294  and  _295
REMARK  131  A    between atoms: _295  and  _296
REMARK  132  A    between atoms: _296  and  _297
REMARK  133  A    between atoms: _306  and  _308
REMARK  134  A    between atoms: _308  and  _309
REMARK  135  A    between atoms: _308  and  _311
REMARK  136  A    between atoms: _311  and  _312
REMARK  137  A    between atoms: _314  and  _316
REMARK  138  A    between atoms: _316  and  _317
REMARK  139  A    between atoms: _316  and  _319
REMARK  140  A    between atoms: _319  and  _320
REMARK  141  A    between atoms: _323  and  _325
REMARK  142  A    between atoms: _325  and  _326
REMARK  143  A    between atoms: _325  and  _328
REMARK  144  A    between atoms: _328  and  _329
REMARK  145  A    between atoms: _331  and  _333
REMARK  146  A    between atoms: _333  and  _334
REMARK  147  A    between atoms: _333  and  _336
REMARK  148  A    between atoms: _336  and  _337
REMARK  149  A    between atoms: _340  and  _342
REMARK  150  A    between atoms: _342  and  _343
REMARK  151  A    between atoms: _342  and  _345
REMARK  152  A    between atoms: _345  and  _346
REMARK  153  A    between atoms: _351  and  _353
REMARK  154  A    between atoms: _353  and  _354
REMARK  155  A    between atoms: _357  and  _359
REMARK  156  A    between atoms: _359  and  _360
REMARK  157  A    between atoms: _359  and  _362
REMARK  158  A    between atoms: _362  and  _363
REMARK  159  A    between atoms: _366  and  _368
REMARK  160  A    between atoms: _368  and  _369
REMARK  161  A    between atoms: _372  and  _374
REMARK  162  A    between atoms: _374  and  _375
REMARK  163  A    between atoms: _377  and  _379
REMARK  164  A    between atoms: _379  and  _380
REMARK  165  A    between atoms: _379  and  _382
REMARK  166  A    between atoms: _382  and  _383
REMARK  167  A    between atoms: _385  and  _387
REMARK  168  A    between atoms: _387  and  _388
REMARK  169  A    between atoms: _387  and  _390
REMARK  170  A    between atoms: _390  and  _391
REMARK  171  A    between atoms: _397  and  _399
REMARK  172  A    between atoms: _399  and  _400
REMARK  173  A    between atoms: _399  and  _402
REMARK  174  A    between atoms: _402  and  _403
REMARK  175  A    between atoms: _406  and  _408
REMARK  176  A    between atoms: _408  and  _409
REMARK  177  A    between atoms: _408  and  _411
REMARK  178  A    between atoms: _411  and  _412
REMARK  179  A    between atoms: _415  and  _417
REMARK  180  A    between atoms: _417  and  _418
REMARK  181  A    between atoms: _417  and  _420
REMARK  182  A    between atoms: _420  and  _421
REMARK  183  A    between atoms: _423  and  _425
REMARK  184  A    between atoms: _425  and  _426
REMARK  185  A    between atoms: _425  and  _428
REMARK  186  A    between atoms: _428  and  _429
REMARK  187  A    between atoms: _432  and  _434
REMARK  188  A    between atoms: _434  and  _435
REMARK  189  A    between atoms: _434  and  _437
REMARK  190  A    between atoms: _437  and  _438
REMARK  191  A    between atoms: _441  and  _443
REMARK  192  A    between atoms: _443  and  _444
REMARK  193  A    between atoms: _443  and  _446
REMARK  194  A    between atoms: _446  and  _447
REMARK  195  A    between atoms: _449  and  _451
REMARK  196  A    between atoms: _451  and  _452
REMARK  197  A    between atoms: _455  and  _457
REMARK  198  A    between atoms: _457  and  _458
REMARK  199  A    between atoms: _457  and  _460
REMARK  200  A    between atoms: _460  and  _461
REMARK  201  A    between atoms: _467  and  _469
REMARK  202  A    between atoms: _469  and  _470
REMARK  203  A    between atoms: _469  and  _472
REMARK  204  A    between atoms: _472  and  _473
REMARK  205  A    between atoms: _476  and  _478
REMARK  206  A    between atoms: _478  and  _479
REMARK  207  A    between atoms: _478  and  _481
REMARK  208  A    between atoms: _481  and  _482
REMARK  209  A    between atoms: _487  and  _489
REMARK  210  A    between atoms: _489  and  _490
REMARK  211  A    between atoms: _489  and  _492
REMARK  212  A    between atoms: _492  and  _493
REMARK  213  A    between atoms: _499  and  _501
REMARK  214  A    between atoms: _501  and  _502
REMARK  215  A    between atoms: _501  and  _504
REMARK  216  A    between atoms: _504  and  _505
REMARK  217  A    between atoms: _509  and  _510
REMARK  218  A    between atoms: _515  and  _517
REMARK  219  A    between atoms: _517  and  _518
REMARK  220  A    between atoms: _517  and  _520
REMARK  221  A    between atoms: _520  and  _521
REMARK  222  A    between atoms: _521  and  _522
REMARK  223  A    between atoms: _525  and  _527
REMARK  224  A    between atoms: _527  and  _528
REMARK  225  A    between atoms: _527  and  _530
REMARK  226  A    between atoms: _530  and  _531
REMARK                            x       y       z     vdW  Elec       q    Type
REMARK                         _______ _______ _______ _____ _____    ______ ____
ROOT
ATOM      1  O   HOH     1      37.641  71.344  12.407  0.00  0.00    +0.000 OA
ENDROOT
TORSDOF 0
REMARK  Name = ../refined-set-2016/4wkp/4wkp_pocket.pdb
REMARK  226 active torsions:
REMARK  status: ('A' for Active; 'I' for Inactive)
REMARK    1  A    between atoms: _1  and  _3
REMARK    2  A    between atoms: _3  and  _4
REMARK    3  A    between atoms: _6  and  _8
REMARK    4  A    between atoms: _8  and  _9
REMARK    5  A    between atoms: _12  and  _14
REMARK    6  A    between atoms: _14  and  _15
REMARK    7  A    between atoms: _14  and  _17
REMARK    8  A    between atoms: _17  and  _18
REMARK    9  A    between atoms: _18  and  _19
REMARK   10  A    between atoms: _21  and  _23
REMARK   11  A    between atoms: _23  and  _24
REMARK   12  A    between atoms: _23  and  _26
REMARK   13  A    between atoms: _26  and  _27
REMARK   14  A    between atoms: _27  and  _28
REMARK   15  A    between atoms: _31  and  _33
REMARK   16  A    between atoms: _33  and  _34
REMARK   17  A    between atoms: _33  and  _36
REMARK   18  A    between atoms: _36  and  _37
REMARK   19  A    between atoms: _37  and  _38
REMARK   20  A    between atoms: _41  and  _43
REMARK   21  A    between atoms: _43  and  _44
REMARK   22  A    between atoms: _43  and  _46
REMARK   23  A    between atoms: _46  and  _47
REMARK   24  A    between atoms: _49  and  _51
REMARK   25  A    between atoms: _51  and  _52
REMARK   26  A    between atoms: _51  and  _54
REMARK   27  A    between atoms: _54  and  _55
REMARK   28  A    between atoms: _55  and  _56
REMARK   29  A    between atoms: _56  and  _57
REMARK   30  A    between atoms: _57  and  _58
REMARK   31  A    between atoms: _62  and  _64
REMARK   32  A    between atoms: _64  and  _65
REMARK   33  A    between atoms: _64  and  _67
REMARK   34  A    between atoms: _67  and  _68
REMARK   35  A    between atoms: _71  and  _73
REMARK   36  A    between atoms: _73  and  _74
REMARK   37  A    between atoms: _76  and  _78
REMARK   38  A    between atoms: _78  and  _79
REMARK   39  A    between atoms: _78  and  _81
REMARK   40  A    between atoms: _81  and  _82
REMARK   41  A    between atoms: _88  and  _90
REMARK   42  A    between atoms: _90  and  _91
REMARK   43  A    between atoms: _93  and  _95
REMARK   44  A    between atoms: _95  and  _96
REMARK   45  A    between atoms: _95  and  _98
REMARK   46  A    between atoms: _101  and  _103
REMARK   47  A    between atoms: _103  and  _104
REMARK   48  A    between atoms: _107  and  _109
REMARK   49  A    between atoms: _109  and  _110
REMARK   50  A    between atoms: _112  and  _114
REMARK   51  A    between atoms: _114  and  _115
REMARK   52  A    between atoms: _114  and  _117
REMARK   53  A    between atoms: _117  and  _118
REMARK   54  A    between atoms: _120  and  _122
REMARK   55  A    between atoms: _122  and  _123
REMARK   56  A    between atoms: _122  and  _125
REMARK   57  A    between atoms: _125  and  _126
REMARK   58  A    between atoms: _129  and  _131
REMARK   59  A    between atoms: _131  and  _132
REMARK   60  A    between atoms: _131  and  _134
REMARK   61  A    between atoms: _134  and  _135
REMARK   62  A    between atoms: _140  and  _142
REMARK   63  A    between atoms: _142  and  _143
REMARK   64  A    between atoms: _146  and  _148
REMARK   65  A    between atoms: _148  and  _149
REMARK   66  A    between atoms: _148  and  _151
REMARK   67  A    between atoms: _151  and  _152
REMARK   68  A    between atoms: _154  and  _156
REMARK   69  A    between atoms: _156  and  _157
REMARK   70  A    between atoms: _159  and  _161
REMARK   71  A    between atoms: _161  and  _162
REMARK   72  A    between atoms: _161  and  _164
REMARK   73  A    between atoms: _164  and  _165
REMARK   74  A    between atoms: _168  and  _170
REMARK   75  A    between atoms: _170  and  _171
REMARK   76  A    between atoms: _170  and  _173
REMARK   77  A    between atoms: _173  and  _174
REMARK   78  A    between atoms: _174  and  _175
REMARK   79  A    between atoms: _180  and  _182
REMARK   80  A    between atoms: _182  and  _183
REMARK   81  A    between atoms: _182  and  _185
REMARK   82  A    between atoms: _185  and  _186
REMARK   83  A    between atoms: _192  and  _194
REMARK   84  A    between atoms: _194  and  _195
REMARK   85  A    between atoms: _194  and  _197
REMARK   86  A    between atoms: _200  and  _202
REMARK   87  A    between atoms: _202  and  _203
REMARK   88  A    between atoms: _202  and  _205
REMARK   89  A    between atoms: _205  and  _206
REMARK   90  A    between atoms: _211  and  _213
REMARK   91  A    between atoms: _213  and  _214
REMARK   92  A    between atoms: _213  and  _216
REMARK   93  A    between atoms: _216  and  _217
REMARK   94  A    between atoms: _219  and  _221
REMARK   95  A    between atoms: _221  and  _222
REMARK   96  A    between atoms: _221  and  _224
REMARK   97  A    between atoms: _224  and  _225
REMARK   98  A    between atoms: _225  and  _226
REMARK   99  A    between atoms: _226  and  _227
REMARK  100  A    between atoms: _227  and  _228
REMARK  101  A    between atoms: _232  and  _234
REMARK  102  A    between atoms: _234  and  _235
REMARK  103  A    between atoms: _234  and  _237
REMARK  104  A    between atoms: _237  and  _238
REMARK  105  A    between atoms: _241  and  _243
REMARK  106  A    between atoms: _243  and  _244
REMARK  107  A    between atoms: _247  and  _249
REMARK  108  A    between atoms: _249  and  _250
REMARK  109  A    between atoms: _249  and  _252
REMARK  110  A    between atoms: _255  and  _257
REMARK  111  A    between atoms: _257  and  _258
REMARK  112  A    between atoms: _257  and  _260
REMARK  113  A    between atoms: _260  and  _261
REMARK  114  A    between atoms: _261  and  _262
REMARK  115  A    between atoms: _265  and  _267
REMARK  116  A    between atoms: _267  and  _268
REMARK  117  A    between atoms: _267  and  _270
REMARK  118  A    between atoms: _270  and  _271
REMARK  119  A    between atoms: _271  and  _272
REMARK  120  A    between atoms: _274  and  _276
REMARK  121  A    between atoms: _276  and  _277
REMARK  122  A    between atoms: _276  and  _279
REMARK  123  A    between atoms: _279  and  _280
REMARK  124  A    between atoms: _280  and  _281
REMARK  125  A    between atoms: _284  and  _286
REMARK  126  A    between atoms: _286  and  _287
REMARK  127  A    between atoms: _289  and  _291
REMARK  128  A    between atoms: _291  and  _292
REMARK  129  A    between atoms: _291  and  _294
REMARK  130  A    between atoms: _294  and  _295
REMARK  131  A    between atoms: _295  and  _296
REMARK  132  A    between atoms: _296  and  _297
REMARK  133  A    between atoms: _306  and  _308
REMARK  134  A    between atoms: _308  and  _309
REMARK  135  A    between atoms: _308  and  _311
REMARK  136  A    between atoms: _311  and  _312
REMARK  137  A    between atoms: _314  and  _316
REMARK  138  A    between atoms: _316  and  _317
REMARK  139  A    between atoms: _316  and  _319
REMARK  140  A    between atoms: _319  and  _320
REMARK  141  A    between atoms: _323  and  _325
REMARK  142  A    between atoms: _325  and  _326
REMARK  143  A    between atoms: _325  and  _328
REMARK  144  A    between atoms: _328  and  _329
REMARK  145  A    between atoms: _331  and  _333
REMARK  146  A    between atoms: _333  and  _334
REMARK  147  A    between atoms: _333  and  _336
REMARK  148  A    between atoms: _336  and  _337
REMARK  149  A    between atoms: _340  and  _342
REMARK  150  A    between atoms: _342  and  _343
REMARK  151  A    between atoms: _342  and  _345
REMARK  152  A    between atoms: _345  and  _346
REMARK  153  A    between atoms: _351  and  _353
REMARK  154  A    between atoms: _353  and  _354
REMARK  155  A    between atoms: _357  and  _359
REMARK  156  A    between atoms: _359  and  _360
REMARK  157  A    between atoms: _359  and  _362
REMARK  158  A    between atoms: _362  and  _363
REMARK  159  A    between atoms: _366  and  _368
REMARK  160  A    between atoms: _368  and  _369
REMARK  161  A    between atoms: _372  and  _374
REMARK  162  A    between atoms: _374  and  _375
REMARK  163  A    between atoms: _377  and  _379
REMARK  164  A    between atoms: _379  and  _380
REMARK  165  A    between atoms: _379  and  _382
REMARK  166  A    between atoms: _382  and  _383
REMARK  167  A    between atoms: _385  and  _387
REMARK  168  A    between atoms: _387  and  _388
REMARK  169  A    between atoms: _387  and  _390
REMARK  170  A    between atoms: _390  and  _391
REMARK  171  A    between atoms: _397  and  _399
REMARK  172  A    between atoms: _399  and  _400
REMARK  173  A    between atoms: _399  and  _402
REMARK  174  A    between atoms: _402  and  _403
REMARK  175  A    between atoms: _406  and  _408
REMARK  176  A    between atoms: _408  and  _409
REMARK  177  A    between atoms: _408  and  _411
REMARK  178  A    between atoms: _411  and  _412
REMARK  179  A    between atoms: _415  and  _417
REMARK  180  A    between atoms: _417  and  _418
REMARK  181  A    between atoms: _417  and  _420
REMARK  182  A    between atoms: _420  and  _421
REMARK  183  A    between atoms: _423  and  _425
REMARK  184  A    between atoms: _425  and  _426
REMARK  185  A    between atoms: _425  and  _428
REMARK  186  A    between atoms: _428  and  _429
REMARK  187  A    between atoms: _432  and  _434
REMARK  188  A    between atoms: _434  and  _435
REMARK  189  A    between atoms: _434  and  _437
REMARK  190  A    between atoms: _437  and  _438
REMARK  191  A    between atoms: _441  and  _443
REMARK  192  A    between atoms: _443  and  _444
REMARK  193  A    between atoms: _443  and  _446
REMARK  194  A    between atoms: _446  and  _447
REMARK  195  A    between atoms: _449  and  _451
REMARK  196  A    between atoms: _451  and  _452
REMARK  197  A    between atoms: _455  and  _457
REMARK  198  A    between atoms: _457  and  _458
REMARK  199  A    between atoms: _457  and  _460
REMARK  200  A    between atoms: _460  and  _461
REMARK  201  A    between atoms: _467  and  _469
REMARK  202  A    between atoms: _469  and  _470
REMARK  203  A    between atoms: _469  and  _472
REMARK  204  A    between atoms: _472  and  _473
REMARK  205  A    between atoms: _476  and  _478
REMARK  206  A    between atoms: _478  and  _479
REMARK  207  A    between atoms: _478  and  _481
REMARK  208  A    between atoms: _481  and  _482
REMARK  209  A    between atoms: _487  and  _489
REMARK  210  A    between atoms: _489  and  _490
REMARK  211  A    between atoms: _489  and  _492
REMARK  212  A    between atoms: _492  and  _493
REMARK  213  A    between atoms: _499  and  _501
REMARK  214  A    between atoms: _501  and  _502
REMARK  215  A    between atoms: _501  and  _504
REMARK  216  A    between atoms: _504  and  _505
REMARK  217  A    between atoms: _509  and  _510
REMARK  218  A    between atoms: _515  and  _517
REMARK  219  A    between atoms: _517  and  _518
REMARK  220  A    between atoms: _517  and  _520
REMARK  221  A    between atoms: _520  and  _521
REMARK  222  A    between atoms: _521  and  _522
REMARK  223  A    between atoms: _525  and  _527
REMARK  224  A    between atoms: _527  and  _528
REMARK  225  A    between atoms: _527  and  _530
REMARK  226  A    between atoms: _530  and  _531
REMARK                            x       y       z     vdW  Elec       q    Type
REMARK                         _______ _______ _______ _____ _____    ______ ____
ROOT
ATOM      1  O   HOH     1      35.199  81.209  26.720  0.00  0.00    +0.000 OA
ENDROOT
TORSDOF 0
REMARK  Name = ../refined-set-2016/4wkp/4wkp_pocket.pdb
REMARK  226 active torsions:
REMARK  status: ('A' for Active; 'I' for Inactive)
REMARK    1  A    between atoms: _1  and  _3
REMARK    2  A    between atoms: _3  and  _4
REMARK    3  A    between atoms: _6  and  _8
REMARK    4  A    between atoms: _8  and  _9
REMARK    5  A    between atoms: _12  and  _14
REMARK    6  A    between atoms: _14  and  _15
REMARK    7  A    between atoms: _14  and  _17
REMARK    8  A    between atoms: _17  and  _18
REMARK    9  A    between atoms: _18  and  _19
REMARK   10  A    between atoms: _21  and  _23
REMARK   11  A    between atoms: _23  and  _24
REMARK   12  A    between atoms: _23  and  _26
REMARK   13  A    between atoms: _26  and  _27
REMARK   14  A    between atoms: _27  and  _28
REMARK   15  A    between atoms: _31  and  _33
REMARK   16  A    between atoms: _33  and  _34
REMARK   17  A    between atoms: _33  and  _36
REMARK   18  A    between atoms: _36  and  _37
REMARK   19  A    between atoms: _37  and  _38
REMARK   20  A    between atoms: _41  and  _43
REMARK   21  A    between atoms: _43  and  _44
REMARK   22  A    between atoms: _43  and  _46
REMARK   23  A    between atoms: _46  and  _47
REMARK   24  A    between atoms: _49  and  _51
REMARK   25  A    between atoms: _51  and  _52
REMARK   26  A    between atoms: _51  and  _54
REMARK   27  A    between atoms: _54  and  _55
REMARK   28  A    between atoms: _55  and  _56
REMARK   29  A    between atoms: _56  and  _57
REMARK   30  A    between atoms: _57  and  _58
REMARK   31  A    between atoms: _62  and  _64
REMARK   32  A    between atoms: _64  and  _65
REMARK   33  A    between atoms: _64  and  _67
REMARK   34  A    between atoms: _67  and  _68
REMARK   35  A    between atoms: _71  and  _73
REMARK   36  A    between atoms: _73  and  _74
REMARK   37  A    between atoms: _76  and  _78
REMARK   38  A    between atoms: _78  and  _79
REMARK   39  A    between atoms: _78  and  _81
REMARK   40  A    between atoms: _81  and  _82
REMARK   41  A    between atoms: _88  and  _90
REMARK   42  A    between atoms: _90  and  _91
REMARK   43  A    between atoms: _93  and  _95
REMARK   44  A    between atoms: _95  and  _96
REMARK   45  A    between atoms: _95  and  _98
REMARK   46  A    between atoms: _101  and  _103
REMARK   47  A    between atoms: _103  and  _104
REMARK   48  A    between atoms: _107  and  _109
REMARK   49  A    between atoms: _109  and  _110
REMARK   50  A    between atoms: _112  and  _114
REMARK   51  A    between atoms: _114  and  _115
REMARK   52  A    between atoms: _114  and  _117
REMARK   53  A    between atoms: _117  and  _118
REMARK   54  A    between atoms: _120  and  _122
REMARK   55  A    between atoms: _122  and  _123
REMARK   56  A    between atoms: _122  and  _125
REMARK   57  A    between atoms: _125  and  _126
REMARK   58  A    between atoms: _129  and  _131
REMARK   59  A    between atoms: _131  and  _132
REMARK   60  A    between atoms: _131  and  _134
REMARK   61  A    between atoms: _134  and  _135
REMARK   62  A    between atoms: _140  and  _142
REMARK   63  A    between atoms: _142  and  _143
REMARK   64  A    between atoms: _146  and  _148
REMARK   65  A    between atoms: _148  and  _149
REMARK   66  A    between atoms: _148  and  _151
REMARK   67  A    between atoms: _151  and  _152
REMARK   68  A    between atoms: _154  and  _156
REMARK   69  A    between atoms: _156  and  _157
REMARK   70  A    between atoms: _159  and  _161
REMARK   71  A    between atoms: _161  and  _162
REMARK   72  A    between atoms: _161  and  _164
REMARK   73  A    between atoms: _164  and  _165
REMARK   74  A    between atoms: _168  and  _170
REMARK   75  A    between atoms: _170  and  _171
REMARK   76  A    between atoms: _170  and  _173
REMARK   77  A    between atoms: _173  and  _174
REMARK   78  A    between atoms: _174  and  _175
REMARK   79  A    between atoms: _180  and  _182
REMARK   80  A    between atoms: _182  and  _183
REMARK   81  A    between atoms: _182  and  _185
REMARK   82  A    between atoms: _185  and  _186
REMARK   83  A    between atoms: _192  and  _194
REMARK   84  A    between atoms: _194  and  _195
REMARK   85  A    between atoms: _194  and  _197
REMARK   86  A    between atoms: _200  and  _202
REMARK   87  A    between atoms: _202  and  _203
REMARK   88  A    between atoms: _202  and  _205
REMARK   89  A    between atoms: _205  and  _206
REMARK   90  A    between atoms: _211  and  _213
REMARK   91  A    between atoms: _213  and  _214
REMARK   92  A    between atoms: _213  and  _216
REMARK   93  A    between atoms: _216  and  _217
REMARK   94  A    between atoms: _219  and  _221
REMARK   95  A    between atoms: _221  and  _222
REMARK   96  A    between atoms: _221  and  _224
REMARK   97  A    between atoms: _224  and  _225
REMARK   98  A    between atoms: _225  and  _226
REMARK   99  A    between atoms: _226  and  _227
REMARK  100  A    between atoms: _227  and  _228
REMARK  101  A    between atoms: _232  and  _234
REMARK  102  A    between atoms: _234  and  _235
REMARK  103  A    between atoms: _234  and  _237
REMARK  104  A    between atoms: _237  and  _238
REMARK  105  A    between atoms: _241  and  _243
REMARK  106  A    between atoms: _243  and  _244
REMARK  107  A    between atoms: _247  and  _249
REMARK  108  A    between atoms: _249  and  _250
REMARK  109  A    between atoms: _249  and  _252
REMARK  110  A    between atoms: _255  and  _257
REMARK  111  A    between atoms: _257  and  _258
REMARK  112  A    between atoms: _257  and  _260
REMARK  113  A    between atoms: _260  and  _261
REMARK  114  A    between atoms: _261  and  _262
REMARK  115  A    between atoms: _265  and  _267
REMARK  116  A    between atoms: _267  and  _268
REMARK  117  A    between atoms: _267  and  _270
REMARK  118  A    between atoms: _270  and  _271
REMARK  119  A    between atoms: _271  and  _272
REMARK  120  A    between atoms: _274  and  _276
REMARK  121  A    between atoms: _276  and  _277
REMARK  122  A    between atoms: _276  and  _279
REMARK  123  A    between atoms: _279  and  _280
REMARK  124  A    between atoms: _280  and  _281
REMARK  125  A    between atoms: _284  and  _286
REMARK  126  A    between atoms: _286  and  _287
REMARK  127  A    between atoms: _289  and  _291
REMARK  128  A    between atoms: _291  and  _292
REMARK  129  A    between atoms: _291  and  _294
REMARK  130  A    between atoms: _294  and  _295
REMARK  131  A    between atoms: _295  and  _296
REMARK  132  A    between atoms: _296  and  _297
REMARK  133  A    between atoms: _306  and  _308
REMARK  134  A    between atoms: _308  and  _309
REMARK  135  A    between atoms: _308  and  _311
REMARK  136  A    between atoms: _311  and  _312
REMARK  137  A    between atoms: _314  and  _316
REMARK  138  A    between atoms: _316  and  _317
REMARK  139  A    between atoms: _316  and  _319
REMARK  140  A    between atoms: _319  and  _320
REMARK  141  A    between atoms: _323  and  _325
REMARK  142  A    between atoms: _325  and  _326
REMARK  143  A    between atoms: _325  and  _328
REMARK  144  A    between atoms: _328  and  _329
REMARK  145  A    between atoms: _331  and  _333
REMARK  146  A    between atoms: _333  and  _334
REMARK  147  A    between atoms: _333  and  _336
REMARK  148  A    between atoms: _336  and  _337
REMARK  149  A    between atoms: _340  and  _342
REMARK  150  A    between atoms: _342  and  _343
REMARK  151  A    between atoms: _342  and  _345
REMARK  152  A    between atoms: _345  and  _346
REMARK  153  A    between atoms: _351  and  _353
REMARK  154  A    between atoms: _353  and  _354
REMARK  155  A    between atoms: _357  and  _359
REMARK  156  A    between atoms: _359  and  _360
REMARK  157  A    between atoms: _359  and  _362
REMARK  158  A    between atoms: _362  and  _363
REMARK  159  A    between atoms: _366  and  _368
REMARK  160  A    between atoms: _368  and  _369
REMARK  161  A    between atoms: _372  and  _374
REMARK  162  A    between atoms: _374  and  _375
REMARK  163  A    between atoms: _377  and  _379
REMARK  164  A    between atoms: _379  and  _380
REMARK  165  A    between atoms: _379  and  _382
REMARK  166  A    between atoms: _382  and  _383
REMARK  167  A    between atoms: _385  and  _387
REMARK  168  A    between atoms: _387  and  _388
REMARK  169  A    between atoms: _387  and  _390
REMARK  170  A    between atoms: _390  and  _391
REMARK  171  A    between atoms: _397  and  _399
REMARK  172  A    between atoms: _399  and  _400
REMARK  173  A    between atoms: _399  and  _402
REMARK  174  A    between atoms: _402  and  _403
REMARK  175  A    between atoms: _406  and  _408
REMARK  176  A    between atoms: _408  and  _409
REMARK  177  A    between atoms: _408  and  _411
REMARK  178  A    between atoms: _411  and  _412
REMARK  179  A    between atoms: _415  and  _417
REMARK  180  A    between atoms: _417  and  _418
REMARK  181  A    between atoms: _417  and  _420
REMARK  182  A    between atoms: _420  and  _421
REMARK  183  A    between atoms: _423  and  _425
REMARK  184  A    between atoms: _425  and  _426
REMARK  185  A    between atoms: _425  and  _428
REMARK  186  A    between atoms: _428  and  _429
REMARK  187  A    between atoms: _432  and  _434
REMARK  188  A    between atoms: _434  and  _435
REMARK  189  A    between atoms: _434  and  _437
REMARK  190  A    between atoms: _437  and  _438
REMARK  191  A    between atoms: _441  and  _443
REMARK  192  A    between atoms: _443  and  _444
REMARK  193  A    between atoms: _443  and  _446
REMARK  194  A    between atoms: _446  and  _447
REMARK  195  A    between atoms: _449  and  _451
REMARK  196  A    between atoms: _451  and  _452
REMARK  197  A    between atoms: _455  and  _457
REMARK  198  A    between atoms: _457  and  _458
REMARK  199  A    between atoms: _457  and  _460
REMARK  200  A    between atoms: _460  and  _461
REMARK  201  A    between atoms: _467  and  _469
REMARK  202  A    between atoms: _469  and  _470
REMARK  203  A    between atoms: _469  and  _472
REMARK  204  A    between atoms: _472  and  _473
REMARK  205  A    between atoms: _476  and  _478
REMARK  206  A    between atoms: _478  and  _479
REMARK  207  A    between atoms: _478  and  _481
REMARK  208  A    between atoms: _481  and  _482
REMARK  209  A    between atoms: _487  and  _489
REMARK  210  A    between atoms: _489  and  _490
REMARK  211  A    between atoms: _489  and  _492
REMARK  212  A    between atoms: _492  and  _493
REMARK  213  A    between atoms: _499  and  _501
REMARK  214  A    between atoms: _501  and  _502
REMARK  215  A    between atoms: _501  and  _504
REMARK  216  A    between atoms: _504  and  _505
REMARK  217  A    between atoms: _509  and  _510
REMARK  218  A    between atoms: _515  and  _517
REMARK  219  A    between atoms: _517  and  _518
REMARK  220  A    between atoms: _517  and  _520
REMARK  221  A    between atoms: _520  and  _521
REMARK  222  A    between atoms: _521  and  _522
REMARK  223  A    between atoms: _525  and  _527
REMARK  224  A    between atoms: _527  and  _528
REMARK  225  A    between atoms: _527  and  _530
REMARK  226  A    between atoms: _530  and  _531
REMARK                            x       y       z     vdW  Elec       q    Type
REMARK                         _______ _______ _______ _____ _____    ______ ____
ROOT
ATOM      1  O   HOH     1      48.113  77.115  29.432  0.00  0.00    +0.000 OA
ENDROOT
TORSDOF 0
REMARK  Name = ../refined-set-2016/4wkp/4wkp_pocket.pdb
REMARK  226 active torsions:
REMARK  status: ('A' for Active; 'I' for Inactive)
REMARK    1  A    between atoms: _1  and  _3
REMARK    2  A    between atoms: _3  and  _4
REMARK    3  A    between atoms: _6  and  _8
REMARK    4  A    between atoms: _8  and  _9
REMARK    5  A    between atoms: _12  and  _14
REMARK    6  A    between atoms: _14  and  _15
REMARK    7  A    between atoms: _14  and  _17
REMARK    8  A    between atoms: _17  and  _18
REMARK    9  A    between atoms: _18  and  _19
REMARK   10  A    between atoms: _21  and  _23
REMARK   11  A    between atoms: _23  and  _24
REMARK   12  A    between atoms: _23  and  _26
REMARK   13  A    between atoms: _26  and  _27
REMARK   14  A    between atoms: _27  and  _28
REMARK   15  A    between atoms: _31  and  _33
REMARK   16  A    between atoms: _33  and  _34
REMARK   17  A    between atoms: _33  and  _36
REMARK   18  A    between atoms: _36  and  _37
REMARK   19  A    between atoms: _37  and  _38
REMARK   20  A    between atoms: _41  and  _43
REMARK   21  A    between atoms: _43  and  _44
REMARK   22  A    between atoms: _43  and  _46
REMARK   23  A    between atoms: _46  and  _47
REMARK   24  A    between atoms: _49  and  _51
REMARK   25  A    between atoms: _51  and  _52
REMARK   26  A    between atoms: _51  and  _54
REMARK   27  A    between atoms: _54  and  _55
REMARK   28  A    between atoms: _55  and  _56
REMARK   29  A    between atoms: _56  and  _57
REMARK   30  A    between atoms: _57  and  _58
REMARK   31  A    between atoms: _62  and  _64
REMARK   32  A    between atoms: _64  and  _65
REMARK   33  A    between atoms: _64  and  _67
REMARK   34  A    between atoms: _67  and  _68
REMARK   35  A    between atoms: _71  and  _73
REMARK   36  A    between atoms: _73  and  _74
REMARK   37  A    between atoms: _76  and  _78
REMARK   38  A    between atoms: _78  and  _79
REMARK   39  A    between atoms: _78  and  _81
REMARK   40  A    between atoms: _81  and  _82
REMARK   41  A    between atoms: _88  and  _90
REMARK   42  A    between atoms: _90  and  _91
REMARK   43  A    between atoms: _93  and  _95
REMARK   44  A    between atoms: _95  and  _96
REMARK   45  A    between atoms: _95  and  _98
REMARK   46  A    between atoms: _101  and  _103
REMARK   47  A    between atoms: _103  and  _104
REMARK   48  A    between atoms: _107  and  _109
REMARK   49  A    between atoms: _109  and  _110
REMARK   50  A    between atoms: _112  and  _114
REMARK   51  A    between atoms: _114  and  _115
REMARK   52  A    between atoms: _114  and  _117
REMARK   53  A    between atoms: _117  and  _118
REMARK   54  A    between atoms: _120  and  _122
REMARK   55  A    between atoms: _122  and  _123
REMARK   56  A    between atoms: _122  and  _125
REMARK   57  A    between atoms: _125  and  _126
REMARK   58  A    between atoms: _129  and  _131
REMARK   59  A    between atoms: _131  and  _132
REMARK   60  A    between atoms: _131  and  _134
REMARK   61  A    between atoms: _134  and  _135
REMARK   62  A    between atoms: _140  and  _142
REMARK   63  A    between atoms: _142  and  _143
REMARK   64  A    between atoms: _146  and  _148
REMARK   65  A    between atoms: _148  and  _149
REMARK   66  A    between atoms: _148  and  _151
REMARK   67  A    between atoms: _151  and  _152
REMARK   68  A    between atoms: _154  and  _156
REMARK   69  A    between atoms: _156  and  _157
REMARK   70  A    between atoms: _159  and  _161
REMARK   71  A    between atoms: _161  and  _162
REMARK   72  A    between atoms: _161  and  _164
REMARK   73  A    between atoms: _164  and  _165
REMARK   74  A    between atoms: _168  and  _170
REMARK   75  A    between atoms: _170  and  _171
REMARK   76  A    between atoms: _170  and  _173
REMARK   77  A    between atoms: _173  and  _174
REMARK   78  A    between atoms: _174  and  _175
REMARK   79  A    between atoms: _180  and  _182
REMARK   80  A    between atoms: _182  and  _183
REMARK   81  A    between atoms: _182  and  _185
REMARK   82  A    between atoms: _185  and  _186
REMARK   83  A    between atoms: _192  and  _194
REMARK   84  A    between atoms: _194  and  _195
REMARK   85  A    between atoms: _194  and  _197
REMARK   86  A    between atoms: _200  and  _202
REMARK   87  A    between atoms: _202  and  _203
REMARK   88  A    between atoms: _202  and  _205
REMARK   89  A    between atoms: _205  and  _206
REMARK   90  A    between atoms: _211  and  _213
REMARK   91  A    between atoms: _213  and  _214
REMARK   92  A    between atoms: _213  and  _216
REMARK   93  A    between atoms: _216  and  _217
REMARK   94  A    between atoms: _219  and  _221
REMARK   95  A    between atoms: _221  and  _222
REMARK   96  A    between atoms: _221  and  _224
REMARK   97  A    between atoms: _224  and  _225
REMARK   98  A    between atoms: _225  and  _226
REMARK   99  A    between atoms: _226  and  _227
REMARK  100  A    between atoms: _227  and  _228
REMARK  101  A    between atoms: _232  and  _234
REMARK  102  A    between atoms: _234  and  _235
REMARK  103  A    between atoms: _234  and  _237
REMARK  104  A    between atoms: _237  and  _238
REMARK  105  A    between atoms: _241  and  _243
REMARK  106  A    between atoms: _243  and  _244
REMARK  107  A    between atoms: _247  and  _249
REMARK  108  A    between atoms: _249  and  _250
REMARK  109  A    between atoms: _249  and  _252
REMARK  110  A    between atoms: _255  and  _257
REMARK  111  A    between atoms: _257  and  _258
REMARK  112  A    between atoms: _257  and  _260
REMARK  113  A    between atoms: _260  and  _261
REMARK  114  A    between atoms: _261  and  _262
REMARK  115  A    between atoms: _265  and  _267
REMARK  116  A    between atoms: _267  and  _268
REMARK  117  A    between atoms: _267  and  _270
REMARK  118  A    between atoms: _270  and  _271
REMARK  119  A    between atoms: _271  and  _272
REMARK  120  A    between atoms: _274  and  _276
REMARK  121  A    between atoms: _276  and  _277
REMARK  122  A    between atoms: _276  and  _279
REMARK  123  A    between atoms: _279  and  _280
REMARK  124  A    between atoms: _280  and  _281
REMARK  125  A    between atoms: _284  and  _286
REMARK  126  A    between atoms: _286  and  _287
REMARK  127  A    between atoms: _289  and  _291
REMARK  128  A    between atoms: _291  and  _292
REMARK  129  A    between atoms: _291  and  _294
REMARK  130  A    between atoms: _294  and  _295
REMARK  131  A    between atoms: _295  and  _296
REMARK  132  A    between atoms: _296  and  _297
REMARK  133  A    between atoms: _306  and  _308
REMARK  134  A    between atoms: _308  and  _309
REMARK  135  A    between atoms: _308  and  _311
REMARK  136  A    between atoms: _311  and  _312
REMARK  137  A    between atoms: _314  and  _316
REMARK  138  A    between atoms: _316  and  _317
REMARK  139  A    between atoms: _316  and  _319
REMARK  140  A    between atoms: _319  and  _320
REMARK  141  A    between atoms: _323  and  _325
REMARK  142  A    between atoms: _325  and  _326
REMARK  143  A    between atoms: _325  and  _328
REMARK  144  A    between atoms: _328  and  _329
REMARK  145  A    between atoms: _331  and  _333
REMARK  146  A    between atoms: _333  and  _334
REMARK  147  A    between atoms: _333  and  _336
REMARK  148  A    between atoms: _336  and  _337
REMARK  149  A    between atoms: _340  and  _342
REMARK  150  A    between atoms: _342  and  _343
REMARK  151  A    between atoms: _342  and  _345
REMARK  152  A    between atoms: _345  and  _346
REMARK  153  A    between atoms: _351  and  _353
REMARK  154  A    between atoms: _353  and  _354
REMARK  155  A    between atoms: _357  and  _359
REMARK  156  A    between atoms: _359  and  _360
REMARK  157  A    between atoms: _359  and  _362
REMARK  158  A    between atoms: _362  and  _363
REMARK  159  A    between atoms: _366  and  _368
REMARK  160  A    between atoms: _368  and  _369
REMARK  161  A    between atoms: _372  and  _374
REMARK  162  A    between atoms: _374  and  _375
REMARK  163  A    between atoms: _377  and  _379
REMARK  164  A    between atoms: _379  and  _380
REMARK  165  A    between atoms: _379  and  _382
REMARK  166  A    between atoms: _382  and  _383
REMARK  167  A    between atoms: _385  and  _387
REMARK  168  A    between atoms: _387  and  _388
REMARK  169  A    between atoms: _387  and  _390
REMARK  170  A    between atoms: _390  and  _391
REMARK  171  A    between atoms: _397  and  _399
REMARK  172  A    between atoms: _399  and  _400
REMARK  173  A    between atoms: _399  and  _402
REMARK  174  A    between atoms: _402  and  _403
REMARK  175  A    between atoms: _406  and  _408
REMARK  176  A    between atoms: _408  and  _409
REMARK  177  A    between atoms: _408  and  _411
REMARK  178  A    between atoms: _411  and  _412
REMARK  179  A    between atoms: _415  and  _417
REMARK  180  A    between atoms: _417  and  _418
REMARK  181  A    between atoms: _417  and  _420
REMARK  182  A    between atoms: _420  and  _421
REMARK  183  A    between atoms: _423  and  _425
REMARK  184  A    between atoms: _425  and  _426
REMARK  185  A    between atoms: _425  and  _428
REMARK  186  A    between atoms: _428  and  _429
REMARK  187  A    between atoms: _432  and  _434
REMARK  188  A    between atoms: _434  and  _435
REMARK  189  A    between atoms: _434  and  _437
REMARK  190  A    between atoms: _437  and  _438
REMARK  191  A    between atoms: _441  and  _443
REMARK  192  A    between atoms: _443  and  _444
REMARK  193  A    between atoms: _443  and  _446
REMARK  194  A    between atoms: _446  and  _447
REMARK  195  A    between atoms: _449  and  _451
REMARK  196  A    between atoms: _451  and  _452
REMARK  197  A    between atoms: _455  and  _457
REMARK  198  A    between atoms: _457  and  _458
REMARK  199  A    between atoms: _457  and  _460
REMARK  200  A    between atoms: _460  and  _461
REMARK  201  A    between atoms: _467  and  _469
REMARK  202  A    between atoms: _469  and  _470
REMARK  203  A    between atoms: _469  and  _472
REMARK  204  A    between atoms: _472  and  _473
REMARK  205  A    between atoms: _476  and  _478
REMARK  206  A    between atoms: _478  and  _479
REMARK  207  A    between atoms: _478  and  _481
REMARK  208  A    between atoms: _481  and  _482
REMARK  209  A    between atoms: _487  and  _489
REMARK  210  A    between atoms: _489  and  _490
REMARK  211  A    between atoms: _489  and  _492
REMARK  212  A    between atoms: _492  and  _493
REMARK  213  A    between atoms: _499  and  _501
REMARK  214  A    between atoms: _501  and  _502
REMARK  215  A    between atoms: _501  and  _504
REMARK  216  A    between atoms: _504  and  _505
REMARK  217  A    between atoms: _509  and  _510
REMARK  218  A    between atoms: _515  and  _517
REMARK  219  A    between atoms: _517  and  _518
REMARK  220  A    between atoms: _517  and  _520
REMARK  221  A    between atoms: _520  and  _521
REMARK  222  A    between atoms: _521  and  _522
REMARK  223  A    between atoms: _525  and  _527
REMARK  224  A    between atoms: _527  and  _528
REMARK  225  A    between atoms: _527  and  _530
REMARK  226  A    between atoms: _530  and  _531
REMARK                            x       y       z     vdW  Elec       q    Type
REMARK                         _______ _______ _______ _____ _____    ______ ____
ROOT
ATOM      1  O   HOH     1      42.124  85.373  24.732  0.00  0.00    +0.000 OA
ENDROOT
TORSDOF 0
REMARK  Name = ../refined-set-2016/4wkp/4wkp_pocket.pdb
REMARK  226 active torsions:
REMARK  status: ('A' for Active; 'I' for Inactive)
REMARK    1  A    between atoms: _1  and  _3
REMARK    2  A    between atoms: _3  and  _4
REMARK    3  A    between atoms: _6  and  _8
REMARK    4  A    between atoms: _8  and  _9
REMARK    5  A    between atoms: _12  and  _14
REMARK    6  A    between atoms: _14  and  _15
REMARK    7  A    between atoms: _14  and  _17
REMARK    8  A    between atoms: _17  and  _18
REMARK    9  A    between atoms: _18  and  _19
REMARK   10  A    between atoms: _21  and  _23
REMARK   11  A    between atoms: _23  and  _24
REMARK   12  A    between atoms: _23  and  _26
REMARK   13  A    between atoms: _26  and  _27
REMARK   14  A    between atoms: _27  and  _28
REMARK   15  A    between atoms: _31  and  _33
REMARK   16  A    between atoms: _33  and  _34
REMARK   17  A    between atoms: _33  and  _36
REMARK   18  A    between atoms: _36  and  _37
REMARK   19  A    between atoms: _37  and  _38
REMARK   20  A    between atoms: _41  and  _43
REMARK   21  A    between atoms: _43  and  _44
REMARK   22  A    between atoms: _43  and  _46
REMARK   23  A    between atoms: _46  and  _47
REMARK   24  A    between atoms: _49  and  _51
REMARK   25  A    between atoms: _51  and  _52
REMARK   26  A    between atoms: _51  and  _54
REMARK   27  A    between atoms: _54  and  _55
REMARK   28  A    between atoms: _55  and  _56
REMARK   29  A    between atoms: _56  and  _57
REMARK   30  A    between atoms: _57  and  _58
REMARK   31  A    between atoms: _62  and  _64
REMARK   32  A    between atoms: _64  and  _65
REMARK   33  A    between atoms: _64  and  _67
REMARK   34  A    between atoms: _67  and  _68
REMARK   35  A    between atoms: _71  and  _73
REMARK   36  A    between atoms: _73  and  _74
REMARK   37  A    between atoms: _76  and  _78
REMARK   38  A    between atoms: _78  and  _79
REMARK   39  A    between atoms: _78  and  _81
REMARK   40  A    between atoms: _81  and  _82
REMARK   41  A    between atoms: _88  and  _90
REMARK   42  A    between atoms: _90  and  _91
REMARK   43  A    between atoms: _93  and  _95
REMARK   44  A    between atoms: _95  and  _96
REMARK   45  A    between atoms: _95  and  _98
REMARK   46  A    between atoms: _101  and  _103
REMARK   47  A    between atoms: _103  and  _104
REMARK   48  A    between atoms: _107  and  _109
REMARK   49  A    between atoms: _109  and  _110
REMARK   50  A    between atoms: _112  and  _114
REMARK   51  A    between atoms: _114  and  _115
REMARK   52  A    between atoms: _114  and  _117
REMARK   53  A    between atoms: _117  and  _118
REMARK   54  A    between atoms: _120  and  _122
REMARK   55  A    between atoms: _122  and  _123
REMARK   56  A    between atoms: _122  and  _125
REMARK   57  A    between atoms: _125  and  _126
REMARK   58  A    between atoms: _129  and  _131
REMARK   59  A    between atoms: _131  and  _132
REMARK   60  A    between atoms: _131  and  _134
REMARK   61  A    between atoms: _134  and  _135
REMARK   62  A    between atoms: _140  and  _142
REMARK   63  A    between atoms: _142  and  _143
REMARK   64  A    between atoms: _146  and  _148
REMARK   65  A    between atoms: _148  and  _149
REMARK   66  A    between atoms: _148  and  _151
REMARK   67  A    between atoms: _151  and  _152
REMARK   68  A    between atoms: _154  and  _156
REMARK   69  A    between atoms: _156  and  _157
REMARK   70  A    between atoms: _159  and  _161
REMARK   71  A    between atoms: _161  and  _162
REMARK   72  A    between atoms: _161  and  _164
REMARK   73  A    between atoms: _164  and  _165
REMARK   74  A    between atoms: _168  and  _170
REMARK   75  A    between atoms: _170  and  _171
REMARK   76  A    between atoms: _170  and  _173
REMARK   77  A    between atoms: _173  and  _174
REMARK   78  A    between atoms: _174  and  _175
REMARK   79  A    between atoms: _180  and  _182
REMARK   80  A    between atoms: _182  and  _183
REMARK   81  A    between atoms: _182  and  _185
REMARK   82  A    between atoms: _185  and  _186
REMARK   83  A    between atoms: _192  and  _194
REMARK   84  A    between atoms: _194  and  _195
REMARK   85  A    between atoms: _194  and  _197
REMARK   86  A    between atoms: _200  and  _202
REMARK   87  A    between atoms: _202  and  _203
REMARK   88  A    between atoms: _202  and  _205
REMARK   89  A    between atoms: _205  and  _206
REMARK   90  A    between atoms: _211  and  _213
REMARK   91  A    between atoms: _213  and  _214
REMARK   92  A    between atoms: _213  and  _216
REMARK   93  A    between atoms: _216  and  _217
REMARK   94  A    between atoms: _219  and  _221
REMARK   95  A    between atoms: _221  and  _222
REMARK   96  A    between atoms: _221  and  _224
REMARK   97  A    between atoms: _224  and  _225
REMARK   98  A    between atoms: _225  and  _226
REMARK   99  A    between atoms: _226  and  _227
REMARK  100  A    between atoms: _227  and  _228
REMARK  101  A    between atoms: _232  and  _234
REMARK  102  A    between atoms: _234  and  _235
REMARK  103  A    between atoms: _234  and  _237
REMARK  104  A    between atoms: _237  and  _238
REMARK  105  A    between atoms: _241  and  _243
REMARK  106  A    between atoms: _243  and  _244
REMARK  107  A    between atoms: _247  and  _249
REMARK  108  A    between atoms: _249  and  _250
REMARK  109  A    between atoms: _249  and  _252
REMARK  110  A    between atoms: _255  and  _257
REMARK  111  A    between atoms: _257  and  _258
REMARK  112  A    between atoms: _257  and  _260
REMARK  113  A    between atoms: _260  and  _261
REMARK  114  A    between atoms: _261  and  _262
REMARK  115  A    between atoms: _265  and  _267
REMARK  116  A    between atoms: _267  and  _268
REMARK  117  A    between atoms: _267  and  _270
REMARK  118  A    between atoms: _270  and  _271
REMARK  119  A    between atoms: _271  and  _272
REMARK  120  A    between atoms: _274  and  _276
REMARK  121  A    between atoms: _276  and  _277
REMARK  122  A    between atoms: _276  and  _279
REMARK  123  A    between atoms: _279  and  _280
REMARK  124  A    between atoms: _280  and  _281
REMARK  125  A    between atoms: _284  and  _286
REMARK  126  A    between atoms: _286  and  _287
REMARK  127  A    between atoms: _289  and  _291
REMARK  128  A    between atoms: _291  and  _292
REMARK  129  A    between atoms: _291  and  _294
REMARK  130  A    between atoms: _294  and  _295
REMARK  131  A    between atoms: _295  and  _296
REMARK  132  A    between atoms: _296  and  _297
REMARK  133  A    between atoms: _306  and  _308
REMARK  134  A    between atoms: _308  and  _309
REMARK  135  A    between atoms: _308  and  _311
REMARK  136  A    between atoms: _311  and  _312
REMARK  137  A    between atoms: _314  and  _316
REMARK  138  A    between atoms: _316  and  _317
REMARK  139  A    between atoms: _316  and  _319
REMARK  140  A    between atoms: _319  and  _320
REMARK  141  A    between atoms: _323  and  _325
REMARK  142  A    between atoms: _325  and  _326
REMARK  143  A    between atoms: _325  and  _328
REMARK  144  A    between atoms: _328  and  _329
REMARK  145  A    between atoms: _331  and  _333
REMARK  146  A    between atoms: _333  and  _334
REMARK  147  A    between atoms: _333  and  _336
REMARK  148  A    between atoms: _336  and  _337
REMARK  149  A    between atoms: _340  and  _342
REMARK  150  A    between atoms: _342  and  _343
REMARK  151  A    between atoms: _342  and  _345
REMARK  152  A    between atoms: _345  and  _346
REMARK  153  A    between atoms: _351  and  _353
REMARK  154  A    between atoms: _353  and  _354
REMARK  155  A    between atoms: _357  and  _359
REMARK  156  A    between atoms: _359  and  _360
REMARK  157  A    between atoms: _359  and  _362
REMARK  158  A    between atoms: _362  and  _363
REMARK  159  A    between atoms: _366  and  _368
REMARK  160  A    between atoms: _368  and  _369
REMARK  161  A    between atoms: _372  and  _374
REMARK  162  A    between atoms: _374  and  _375
REMARK  163  A    between atoms: _377  and  _379
REMARK  164  A    between atoms: _379  and  _380
REMARK  165  A    between atoms: _379  and  _382
REMARK  166  A    between atoms: _382  and  _383
REMARK  167  A    between atoms: _385  and  _387
REMARK  168  A    between atoms: _387  and  _388
REMARK  169  A    between atoms: _387  and  _390
REMARK  170  A    between atoms: _390  and  _391
REMARK  171  A    between atoms: _397  and  _399
REMARK  172  A    between atoms: _399  and  _400
REMARK  173  A    between atoms: _399  and  _402
REMARK  174  A    between atoms: _402  and  _403
REMARK  175  A    between atoms: _406  and  _408
REMARK  176  A    between atoms: _408  and  _409
REMARK  177  A    between atoms: _408  and  _411
REMARK  178  A    between atoms: _411  and  _412
REMARK  179  A    between atoms: _415  and  _417
REMARK  180  A    between atoms: _417  and  _418
REMARK  181  A    between atoms: _417  and  _420
REMARK  182  A    between atoms: _420  and  _421
REMARK  183  A    between atoms: _423  and  _425
REMARK  184  A    between atoms: _425  and  _426
REMARK  185  A    between atoms: _425  and  _428
REMARK  186  A    between atoms: _428  and  _429
REMARK  187  A    between atoms: _432  and  _434
REMARK  188  A    between atoms: _434  and  _435
REMARK  189  A    between atoms: _434  and  _437
REMARK  190  A    between atoms: _437  and  _438
REMARK  191  A    between atoms: _441  and  _443
REMARK  192  A    between atoms: _443  and  _444
REMARK  193  A    between atoms: _443  and  _446
REMARK  194  A    between atoms: _446  and  _447
REMARK  195  A    between atoms: _449  and  _451
REMARK  196  A    between atoms: _451  and  _452
REMARK  197  A    between atoms: _455  and  _457
REMARK  198  A    between atoms: _457  and  _458
REMARK  199  A    between atoms: _457  and  _460
REMARK  200  A    between atoms: _460  and  _461
REMARK  201  A    between atoms: _467  and  _469
REMARK  202  A    between atoms: _469  and  _470
REMARK  203  A    between atoms: _469  and  _472
REMARK  204  A    between atoms: _472  and  _473
REMARK  205  A    between atoms: _476  and  _478
REMARK  206  A    between atoms: _478  and  _479
REMARK  207  A    between atoms: _478  and  _481
REMARK  208  A    between atoms: _481  and  _482
REMARK  209  A    between atoms: _487  and  _489
REMARK  210  A    between atoms: _489  and  _490
REMARK  211  A    between atoms: _489  and  _492
REMARK  212  A    between atoms: _492  and  _493
REMARK  213  A    between atoms: _499  and  _501
REMARK  214  A    between atoms: _501  and  _502
REMARK  215  A    between atoms: _501  and  _504
REMARK  216  A    between atoms: _504  and  _505
REMARK  217  A    between atoms: _509  and  _510
REMARK  218  A    between atoms: _515  and  _517
REMARK  219  A    between atoms: _517  and  _518
REMARK  220  A    between atoms: _517  and  _520
REMARK  221  A    between atoms: _520  and  _521
REMARK  222  A    between atoms: _521  and  _522
REMARK  223  A    between atoms: _525  and  _527
REMARK  224  A    between atoms: _527  and  _528
REMARK  225  A    between atoms: _527  and  _530
REMARK  226  A    between atoms: _530  and  _531
REMARK                            x       y       z     vdW  Elec       q    Type
REMARK                         _______ _______ _______ _____ _____    ______ ____
ROOT
ATOM      1  O   HOH     1      34.758  66.380  19.009  0.00  0.00    +0.000 OA
ENDROOT
TORSDOF 0
REMARK  Name = ../refined-set-2016/4wkp/4wkp_pocket.pdb
REMARK  226 active torsions:
REMARK  status: ('A' for Active; 'I' for Inactive)
REMARK    1  A    between atoms: _1  and  _3
REMARK    2  A    between atoms: _3  and  _4
REMARK    3  A    between atoms: _6  and  _8
REMARK    4  A    between atoms: _8  and  _9
REMARK    5  A    between atoms: _12  and  _14
REMARK    6  A    between atoms: _14  and  _15
REMARK    7  A    between atoms: _14  and  _17
REMARK    8  A    between atoms: _17  and  _18
REMARK    9  A    between atoms: _18  and  _19
REMARK   10  A    between atoms: _21  and  _23
REMARK   11  A    between atoms: _23  and  _24
REMARK   12  A    between atoms: _23  and  _26
REMARK   13  A    between atoms: _26  and  _27
REMARK   14  A    between atoms: _27  and  _28
REMARK   15  A    between atoms: _31  and  _33
REMARK   16  A    between atoms: _33  and  _34
REMARK   17  A    between atoms: _33  and  _36
REMARK   18  A    between atoms: _36  and  _37
REMARK   19  A    between atoms: _37  and  _38
REMARK   20  A    between atoms: _41  and  _43
REMARK   21  A    between atoms: _43  and  _44
REMARK   22  A    between atoms: _43  and  _46
REMARK   23  A    between atoms: _46  and  _47
REMARK   24  A    between atoms: _49  and  _51
REMARK   25  A    between atoms: _51  and  _52
REMARK   26  A    between atoms: _51  and  _54
REMARK   27  A    between atoms: _54  and  _55
REMARK   28  A    between atoms: _55  and  _56
REMARK   29  A    between atoms: _56  and  _57
REMARK   30  A    between atoms: _57  and  _58
REMARK   31  A    between atoms: _62  and  _64
REMARK   32  A    between atoms: _64  and  _65
REMARK   33  A    between atoms: _64  and  _67
REMARK   34  A    between atoms: _67  and  _68
REMARK   35  A    between atoms: _71  and  _73
REMARK   36  A    between atoms: _73  and  _74
REMARK   37  A    between atoms: _76  and  _78
REMARK   38  A    between atoms: _78  and  _79
REMARK   39  A    between atoms: _78  and  _81
REMARK   40  A    between atoms: _81  and  _82
REMARK   41  A    between atoms: _88  and  _90
REMARK   42  A    between atoms: _90  and  _91
REMARK   43  A    between atoms: _93  and  _95
REMARK   44  A    between atoms: _95  and  _96
REMARK   45  A    between atoms: _95  and  _98
REMARK   46  A    between atoms: _101  and  _103
REMARK   47  A    between atoms: _103  and  _104
REMARK   48  A    between atoms: _107  and  _109
REMARK   49  A    between atoms: _109  and  _110
REMARK   50  A    between atoms: _112  and  _114
REMARK   51  A    between atoms: _114  and  _115
REMARK   52  A    between atoms: _114  and  _117
REMARK   53  A    between atoms: _117  and  _118
REMARK   54  A    between atoms: _120  and  _122
REMARK   55  A    between atoms: _122  and  _123
REMARK   56  A    between atoms: _122  and  _125
REMARK   57  A    between atoms: _125  and  _126
REMARK   58  A    between atoms: _129  and  _131
REMARK   59  A    between atoms: _131  and  _132
REMARK   60  A    between atoms: _131  and  _134
REMARK   61  A    between atoms: _134  and  _135
REMARK   62  A    between atoms: _140  and  _142
REMARK   63  A    between atoms: _142  and  _143
REMARK   64  A    between atoms: _146  and  _148
REMARK   65  A    between atoms: _148  and  _149
REMARK   66  A    between atoms: _148  and  _151
REMARK   67  A    between atoms: _151  and  _152
REMARK   68  A    between atoms: _154  and  _156
REMARK   69  A    between atoms: _156  and  _157
REMARK   70  A    between atoms: _159  and  _161
REMARK   71  A    between atoms: _161  and  _162
REMARK   72  A    between atoms: _161  and  _164
REMARK   73  A    between atoms: _164  and  _165
REMARK   74  A    between atoms: _168  and  _170
REMARK   75  A    between atoms: _170  and  _171
REMARK   76  A    between atoms: _170  and  _173
REMARK   77  A    between atoms: _173  and  _174
REMARK   78  A    between atoms: _174  and  _175
REMARK   79  A    between atoms: _180  and  _182
REMARK   80  A    between atoms: _182  and  _183
REMARK   81  A    between atoms: _182  and  _185
REMARK   82  A    between atoms: _185  and  _186
REMARK   83  A    between atoms: _192  and  _194
REMARK   84  A    between atoms: _194  and  _195
REMARK   85  A    between atoms: _194  and  _197
REMARK   86  A    between atoms: _200  and  _202
REMARK   87  A    between atoms: _202  and  _203
REMARK   88  A    between atoms: _202  and  _205
REMARK   89  A    between atoms: _205  and  _206
REMARK   90  A    between atoms: _211  and  _213
REMARK   91  A    between atoms: _213  and  _214
REMARK   92  A    between atoms: _213  and  _216
REMARK   93  A    between atoms: _216  and  _217
REMARK   94  A    between atoms: _219  and  _221
REMARK   95  A    between atoms: _221  and  _222
REMARK   96  A    between atoms: _221  and  _224
REMARK   97  A    between atoms: _224  and  _225
REMARK   98  A    between atoms: _225  and  _226
REMARK   99  A    between atoms: _226  and  _227
REMARK  100  A    between atoms: _227  and  _228
REMARK  101  A    between atoms: _232  and  _234
REMARK  102  A    between atoms: _234  and  _235
REMARK  103  A    between atoms: _234  and  _237
REMARK  104  A    between atoms: _237  and  _238
REMARK  105  A    between atoms: _241  and  _243
REMARK  106  A    between atoms: _243  and  _244
REMARK  107  A    between atoms: _247  and  _249
REMARK  108  A    between atoms: _249  and  _250
REMARK  109  A    between atoms: _249  and  _252
REMARK  110  A    between atoms: _255  and  _257
REMARK  111  A    between atoms: _257  and  _258
REMARK  112  A    between atoms: _257  and  _260
REMARK  113  A    between atoms: _260  and  _261
REMARK  114  A    between atoms: _261  and  _262
REMARK  115  A    between atoms: _265  and  _267
REMARK  116  A    between atoms: _267  and  _268
REMARK  117  A    between atoms: _267  and  _270
REMARK  118  A    between atoms: _270  and  _271
REMARK  119  A    between atoms: _271  and  _272
REMARK  120  A    between atoms: _274  and  _276
REMARK  121  A    between atoms: _276  and  _277
REMARK  122  A    between atoms: _276  and  _279
REMARK  123  A    between atoms: _279  and  _280
REMARK  124  A    between atoms: _280  and  _281
REMARK  125  A    between atoms: _284  and  _286
REMARK  126  A    between atoms: _286  and  _287
REMARK  127  A    between atoms: _289  and  _291
REMARK  128  A    between atoms: _291  and  _292
REMARK  129  A    between atoms: _291  and  _294
REMARK  130  A    between atoms: _294  and  _295
REMARK  131  A    between atoms: _295  and  _296
REMARK  132  A    between atoms: _296  and  _297
REMARK  133  A    between atoms: _306  and  _308
REMARK  134  A    between atoms: _308  and  _309
REMARK  135  A    between atoms: _308  and  _311
REMARK  136  A    between atoms: _311  and  _312
REMARK  137  A    between atoms: _314  and  _316
REMARK  138  A    between atoms: _316  and  _317
REMARK  139  A    between atoms: _316  and  _319
REMARK  140  A    between atoms: _319  and  _320
REMARK  141  A    between atoms: _323  and  _325
REMARK  142  A    between atoms: _325  and  _326
REMARK  143  A    between atoms: _325  and  _328
REMARK  144  A    between atoms: _328  and  _329
REMARK  145  A    between atoms: _331  and  _333
REMARK  146  A    between atoms: _333  and  _334
REMARK  147  A    between atoms: _333  and  _336
REMARK  148  A    between atoms: _336  and  _337
REMARK  149  A    between atoms: _340  and  _342
REMARK  150  A    between atoms: _342  and  _343
REMARK  151  A    between atoms: _342  and  _345
REMARK  152  A    between atoms: _345  and  _346
REMARK  153  A    between atoms: _351  and  _353
REMARK  154  A    between atoms: _353  and  _354
REMARK  155  A    between atoms: _357  and  _359
REMARK  156  A    between atoms: _359  and  _360
REMARK  157  A    between atoms: _359  and  _362
REMARK  158  A    between atoms: _362  and  _363
REMARK  159  A    between atoms: _366  and  _368
REMARK  160  A    between atoms: _368  and  _369
REMARK  161  A    between atoms: _372  and  _374
REMARK  162  A    between atoms: _374  and  _375
REMARK  163  A    between atoms: _377  and  _379
REMARK  164  A    between atoms: _379  and  _380
REMARK  165  A    between atoms: _379  and  _382
REMARK  166  A    between atoms: _382  and  _383
REMARK  167  A    between atoms: _385  and  _387
REMARK  168  A    between atoms: _387  and  _388
REMARK  169  A    between atoms: _387  and  _390
REMARK  170  A    between atoms: _390  and  _391
REMARK  171  A    between atoms: _397  and  _399
REMARK  172  A    between atoms: _399  and  _400
REMARK  173  A    between atoms: _399  and  _402
REMARK  174  A    between atoms: _402  and  _403
REMARK  175  A    between atoms: _406  and  _408
REMARK  176  A    between atoms: _408  and  _409
REMARK  177  A    between atoms: _408  and  _411
REMARK  178  A    between atoms: _411  and  _412
REMARK  179  A    between atoms: _415  and  _417
REMARK  180  A    between atoms: _417  and  _418
REMARK  181  A    between atoms: _417  and  _420
REMARK  182  A    between atoms: _420  and  _421
REMARK  183  A    between atoms: _423  and  _425
REMARK  184  A    between atoms: _425  and  _426
REMARK  185  A    between atoms: _425  and  _428
REMARK  186  A    between atoms: _428  and  _429
REMARK  187  A    between atoms: _432  and  _434
REMARK  188  A    between atoms: _434  and  _435
REMARK  189  A    between atoms: _434  and  _437
REMARK  190  A    between atoms: _437  and  _438
REMARK  191  A    between atoms: _441  and  _443
REMARK  192  A    between atoms: _443  and  _444
REMARK  193  A    between atoms: _443  and  _446
REMARK  194  A    between atoms: _446  and  _447
REMARK  195  A    between atoms: _449  and  _451
REMARK  196  A    between atoms: _451  and  _452
REMARK  197  A    between atoms: _455  and  _457
REMARK  198  A    between atoms: _457  and  _458
REMARK  199  A    between atoms: _457  and  _460
REMARK  200  A    between atoms: _460  and  _461
REMARK  201  A    between atoms: _467  and  _469
REMARK  202  A    between atoms: _469  and  _470
REMARK  203  A    between atoms: _469  and  _472
REMARK  204  A    between atoms: _472  and  _473
REMARK  205  A    between atoms: _476  and  _478
REMARK  206  A    between atoms: _478  and  _479
REMARK  207  A    between atoms: _478  and  _481
REMARK  208  A    between atoms: _481  and  _482
REMARK  209  A    between atoms: _487  and  _489
REMARK  210  A    between atoms: _489  and  _490
REMARK  211  A    between atoms: _489  and  _492
REMARK  212  A    between atoms: _492  and  _493
REMARK  213  A    between atoms: _499  and  _501
REMARK  214  A    between atoms: _501  and  _502
REMARK  215  A    between atoms: _501  and  _504
REMARK  216  A    between atoms: _504  and  _505
REMARK  217  A    between atoms: _509  and  _510
REMARK  218  A    between atoms: _515  and  _517
REMARK  219  A    between atoms: _517  and  _518
REMARK  220  A    between atoms: _517  and  _520
REMARK  221  A    between atoms: _520  and  _521
REMARK  222  A    between atoms: _521  and  _522
REMARK  223  A    between atoms: _525  and  _527
REMARK  224  A    between atoms: _527  and  _528
REMARK  225  A    between atoms: _527  and  _530
REMARK  226  A    between atoms: _530  and  _531
REMARK                            x       y       z     vdW  Elec       q    Type
REMARK                         _______ _______ _______ _____ _____    ______ ____
ROOT
ATOM      1  O   HOH     1      34.838  71.524  26.644  0.00  0.00    +0.000 OA
ENDROOT
TORSDOF 0
REMARK  Name = ../refined-set-2016/4wkp/4wkp_pocket.pdb
REMARK  226 active torsions:
REMARK  status: ('A' for Active; 'I' for Inactive)
REMARK    1  A    between atoms: _1  and  _3
REMARK    2  A    between atoms: _3  and  _4
REMARK    3  A    between atoms: _6  and  _8
REMARK    4  A    between atoms: _8  and  _9
REMARK    5  A    between atoms: _12  and  _14
REMARK    6  A    between atoms: _14  and  _15
REMARK    7  A    between atoms: _14  and  _17
REMARK    8  A    between atoms: _17  and  _18
REMARK    9  A    between atoms: _18  and  _19
REMARK   10  A    between atoms: _21  and  _23
REMARK   11  A    between atoms: _23  and  _24
REMARK   12  A    between atoms: _23  and  _26
REMARK   13  A    between atoms: _26  and  _27
REMARK   14  A    between atoms: _27  and  _28
REMARK   15  A    between atoms: _31  and  _33
REMARK   16  A    between atoms: _33  and  _34
REMARK   17  A    between atoms: _33  and  _36
REMARK   18  A    between atoms: _36  and  _37
REMARK   19  A    between atoms: _37  and  _38
REMARK   20  A    between atoms: _41  and  _43
REMARK   21  A    between atoms: _43  and  _44
REMARK   22  A    between atoms: _43  and  _46
REMARK   23  A    between atoms: _46  and  _47
REMARK   24  A    between atoms: _49  and  _51
REMARK   25  A    between atoms: _51  and  _52
REMARK   26  A    between atoms: _51  and  _54
REMARK   27  A    between atoms: _54  and  _55
REMARK   28  A    between atoms: _55  and  _56
REMARK   29  A    between atoms: _56  and  _57
REMARK   30  A    between atoms: _57  and  _58
REMARK   31  A    between atoms: _62  and  _64
REMARK   32  A    between atoms: _64  and  _65
REMARK   33  A    between atoms: _64  and  _67
REMARK   34  A    between atoms: _67  and  _68
REMARK   35  A    between atoms: _71  and  _73
REMARK   36  A    between atoms: _73  and  _74
REMARK   37  A    between atoms: _76  and  _78
REMARK   38  A    between atoms: _78  and  _79
REMARK   39  A    between atoms: _78  and  _81
REMARK   40  A    between atoms: _81  and  _82
REMARK   41  A    between atoms: _88  and  _90
REMARK   42  A    between atoms: _90  and  _91
REMARK   43  A    between atoms: _93  and  _95
REMARK   44  A    between atoms: _95  and  _96
REMARK   45  A    between atoms: _95  and  _98
REMARK   46  A    between atoms: _101  and  _103
REMARK   47  A    between atoms: _103  and  _104
REMARK   48  A    between atoms: _107  and  _109
REMARK   49  A    between atoms: _109  and  _110
REMARK   50  A    between atoms: _112  and  _114
REMARK   51  A    between atoms: _114  and  _115
REMARK   52  A    between atoms: _114  and  _117
REMARK   53  A    between atoms: _117  and  _118
REMARK   54  A    between atoms: _120  and  _122
REMARK   55  A    between atoms: _122  and  _123
REMARK   56  A    between atoms: _122  and  _125
REMARK   57  A    between atoms: _125  and  _126
REMARK   58  A    between atoms: _129  and  _131
REMARK   59  A    between atoms: _131  and  _132
REMARK   60  A    between atoms: _131  and  _134
REMARK   61  A    between atoms: _134  and  _135
REMARK   62  A    between atoms: _140  and  _142
REMARK   63  A    between atoms: _142  and  _143
REMARK   64  A    between atoms: _146  and  _148
REMARK   65  A    between atoms: _148  and  _149
REMARK   66  A    between atoms: _148  and  _151
REMARK   67  A    between atoms: _151  and  _152
REMARK   68  A    between atoms: _154  and  _156
REMARK   69  A    between atoms: _156  and  _157
REMARK   70  A    between atoms: _159  and  _161
REMARK   71  A    between atoms: _161  and  _162
REMARK   72  A    between atoms: _161  and  _164
REMARK   73  A    between atoms: _164  and  _165
REMARK   74  A    between atoms: _168  and  _170
REMARK   75  A    between atoms: _170  and  _171
REMARK   76  A    between atoms: _170  and  _173
REMARK   77  A    between atoms: _173  and  _174
REMARK   78  A    between atoms: _174  and  _175
REMARK   79  A    between atoms: _180  and  _182
REMARK   80  A    between atoms: _182  and  _183
REMARK   81  A    between atoms: _182  and  _185
REMARK   82  A    between atoms: _185  and  _186
REMARK   83  A    between atoms: _192  and  _194
REMARK   84  A    between atoms: _194  and  _195
REMARK   85  A    between atoms: _194  and  _197
REMARK   86  A    between atoms: _200  and  _202
REMARK   87  A    between atoms: _202  and  _203
REMARK   88  A    between atoms: _202  and  _205
REMARK   89  A    between atoms: _205  and  _206
REMARK   90  A    between atoms: _211  and  _213
REMARK   91  A    between atoms: _213  and  _214
REMARK   92  A    between atoms: _213  and  _216
REMARK   93  A    between atoms: _216  and  _217
REMARK   94  A    between atoms: _219  and  _221
REMARK   95  A    between atoms: _221  and  _222
REMARK   96  A    between atoms: _221  and  _224
REMARK   97  A    between atoms: _224  and  _225
REMARK   98  A    between atoms: _225  and  _226
REMARK   99  A    between atoms: _226  and  _227
REMARK  100  A    between atoms: _227  and  _228
REMARK  101  A    between atoms: _232  and  _234
REMARK  102  A    between atoms: _234  and  _235
REMARK  103  A    between atoms: _234  and  _237
REMARK  104  A    between atoms: _237  and  _238
REMARK  105  A    between atoms: _241  and  _243
REMARK  106  A    between atoms: _243  and  _244
REMARK  107  A    between atoms: _247  and  _249
REMARK  108  A    between atoms: _249  and  _250
REMARK  109  A    between atoms: _249  and  _252
REMARK  110  A    between atoms: _255  and  _257
REMARK  111  A    between atoms: _257  and  _258
REMARK  112  A    between atoms: _257  and  _260
REMARK  113  A    between atoms: _260  and  _261
REMARK  114  A    between atoms: _261  and  _262
REMARK  115  A    between atoms: _265  and  _267
REMARK  116  A    between atoms: _267  and  _268
REMARK  117  A    between atoms: _267  and  _270
REMARK  118  A    between atoms: _270  and  _271
REMARK  119  A    between atoms: _271  and  _272
REMARK  120  A    between atoms: _274  and  _276
REMARK  121  A    between atoms: _276  and  _277
REMARK  122  A    between atoms: _276  and  _279
REMARK  123  A    between atoms: _279  and  _280
REMARK  124  A    between atoms: _280  and  _281
REMARK  125  A    between atoms: _284  and  _286
REMARK  126  A    between atoms: _286  and  _287
REMARK  127  A    between atoms: _289  and  _291
REMARK  128  A    between atoms: _291  and  _292
REMARK  129  A    between atoms: _291  and  _294
REMARK  130  A    between atoms: _294  and  _295
REMARK  131  A    between atoms: _295  and  _296
REMARK  132  A    between atoms: _296  and  _297
REMARK  133  A    between atoms: _306  and  _308
REMARK  134  A    between atoms: _308  and  _309
REMARK  135  A    between atoms: _308  and  _311
REMARK  136  A    between atoms: _311  and  _312
REMARK  137  A    between atoms: _314  and  _316
REMARK  138  A    between atoms: _316  and  _317
REMARK  139  A    between atoms: _316  and  _319
REMARK  140  A    between atoms: _319  and  _320
REMARK  141  A    between atoms: _323  and  _325
REMARK  142  A    between atoms: _325  and  _326
REMARK  143  A    between atoms: _325  and  _328
REMARK  144  A    between atoms: _328  and  _329
REMARK  145  A    between atoms: _331  and  _333
REMARK  146  A    between atoms: _333  and  _334
REMARK  147  A    between atoms: _333  and  _336
REMARK  148  A    between atoms: _336  and  _337
REMARK  149  A    between atoms: _340  and  _342
REMARK  150  A    between atoms: _342  and  _343
REMARK  151  A    between atoms: _342  and  _345
REMARK  152  A    between atoms: _345  and  _346
REMARK  153  A    between atoms: _351  and  _353
REMARK  154  A    between atoms: _353  and  _354
REMARK  155  A    between atoms: _357  and  _359
REMARK  156  A    between atoms: _359  and  _360
REMARK  157  A    between atoms: _359  and  _362
REMARK  158  A    between atoms: _362  and  _363
REMARK  159  A    between atoms: _366  and  _368
REMARK  160  A    between atoms: _368  and  _369
REMARK  161  A    between atoms: _372  and  _374
REMARK  162  A    between atoms: _374  and  _375
REMARK  163  A    between atoms: _377  and  _379
REMARK  164  A    between atoms: _379  and  _380
REMARK  165  A    between atoms: _379  and  _382
REMARK  166  A    between atoms: _382  and  _383
REMARK  167  A    between atoms: _385  and  _387
REMARK  168  A    between atoms: _387  and  _388
REMARK  169  A    between atoms: _387  and  _390
REMARK  170  A    between atoms: _390  and  _391
REMARK  171  A    between atoms: _397  and  _399
REMARK  172  A    between atoms: _399  and  _400
REMARK  173  A    between atoms: _399  and  _402
REMARK  174  A    between atoms: _402  and  _403
REMARK  175  A    between atoms: _406  and  _408
REMARK  176  A    between atoms: _408  and  _409
REMARK  177  A    between atoms: _408  and  _411
REMARK  178  A    between atoms: _411  and  _412
REMARK  179  A    between atoms: _415  and  _417
REMARK  180  A    between atoms: _417  and  _418
REMARK  181  A    between atoms: _417  and  _420
REMARK  182  A    between atoms: _420  and  _421
REMARK  183  A    between atoms: _423  and  _425
REMARK  184  A    between atoms: _425  and  _426
REMARK  185  A    between atoms: _425  and  _428
REMARK  186  A    between atoms: _428  and  _429
REMARK  187  A    between atoms: _432  and  _434
REMARK  188  A    between atoms: _434  and  _435
REMARK  189  A    between atoms: _434  and  _437
REMARK  190  A    between atoms: _437  and  _438
REMARK  191  A    between atoms: _441  and  _443
REMARK  192  A    between atoms: _443  and  _444
REMARK  193  A    between atoms: _443  and  _446
REMARK  194  A    between atoms: _446  and  _447
REMARK  195  A    between atoms: _449  and  _451
REMARK  196  A    between atoms: _451  and  _452
REMARK  197  A    between atoms: _455  and  _457
REMARK  198  A    between atoms: _457  and  _458
REMARK  199  A    between atoms: _457  and  _460
REMARK  200  A    between atoms: _460  and  _461
REMARK  201  A    between atoms: _467  and  _469
REMARK  202  A    between atoms: _469  and  _470
REMARK  203  A    between atoms: _469  and  _472
REMARK  204  A    between atoms: _472  and  _473
REMARK  205  A    between atoms: _476  and  _478
REMARK  206  A    between atoms: _478  and  _479
REMARK  207  A    between atoms: _478  and  _481
REMARK  208  A    between atoms: _481  and  _482
REMARK  209  A    between atoms: _487  and  _489
REMARK  210  A    between atoms: _489  and  _490
REMARK  211  A    between atoms: _489  and  _492
REMARK  212  A    between atoms: _492  and  _493
REMARK  213  A    between atoms: _499  and  _501
REMARK  214  A    between atoms: _501  and  _502
REMARK  215  A    between atoms: _501  and  _504
REMARK  216  A    between atoms: _504  and  _505
REMARK  217  A    between atoms: _509  and  _510
REMARK  218  A    between atoms: _515  and  _517
REMARK  219  A    between atoms: _517  and  _518
REMARK  220  A    between atoms: _517  and  _520
REMARK  221  A    between atoms: _520  and  _521
REMARK  222  A    between atoms: _521  and  _522
REMARK  223  A    between atoms: _525  and  _527
REMARK  224  A    between atoms: _527  and  _528
REMARK  225  A    between atoms: _527  and  _530
REMARK  226  A    between atoms: _530  and  _531
REMARK                            x       y       z     vdW  Elec       q    Type
REMARK                         _______ _______ _______ _____ _____    ______ ____
ROOT
ATOM      1  O   HOH     1      39.349  85.865  24.143  0.00  0.00    +0.000 OA
ENDROOT
TORSDOF 0
REMARK  Name = ../refined-set-2016/4wkp/4wkp_pocket.pdb
REMARK  226 active torsions:
REMARK  status: ('A' for Active; 'I' for Inactive)
REMARK    1  A    between atoms: _1  and  _3
REMARK    2  A    between atoms: _3  and  _4
REMARK    3  A    between atoms: _6  and  _8
REMARK    4  A    between atoms: _8  and  _9
REMARK    5  A    between atoms: _12  and  _14
REMARK    6  A    between atoms: _14  and  _15
REMARK    7  A    between atoms: _14  and  _17
REMARK    8  A    between atoms: _17  and  _18
REMARK    9  A    between atoms: _18  and  _19
REMARK   10  A    between atoms: _21  and  _23
REMARK   11  A    between atoms: _23  and  _24
REMARK   12  A    between atoms: _23  and  _26
REMARK   13  A    between atoms: _26  and  _27
REMARK   14  A    between atoms: _27  and  _28
REMARK   15  A    between atoms: _31  and  _33
REMARK   16  A    between atoms: _33  and  _34
REMARK   17  A    between atoms: _33  and  _36
REMARK   18  A    between atoms: _36  and  _37
REMARK   19  A    between atoms: _37  and  _38
REMARK   20  A    between atoms: _41  and  _43
REMARK   21  A    between atoms: _43  and  _44
REMARK   22  A    between atoms: _43  and  _46
REMARK   23  A    between atoms: _46  and  _47
REMARK   24  A    between atoms: _49  and  _51
REMARK   25  A    between atoms: _51  and  _52
REMARK   26  A    between atoms: _51  and  _54
REMARK   27  A    between atoms: _54  and  _55
REMARK   28  A    between atoms: _55  and  _56
REMARK   29  A    between atoms: _56  and  _57
REMARK   30  A    between atoms: _57  and  _58
REMARK   31  A    between atoms: _62  and  _64
REMARK   32  A    between atoms: _64  and  _65
REMARK   33  A    between atoms: _64  and  _67
REMARK   34  A    between atoms: _67  and  _68
REMARK   35  A    between atoms: _71  and  _73
REMARK   36  A    between atoms: _73  and  _74
REMARK   37  A    between atoms: _76  and  _78
REMARK   38  A    between atoms: _78  and  _79
REMARK   39  A    between atoms: _78  and  _81
REMARK   40  A    between atoms: _81  and  _82
REMARK   41  A    between atoms: _88  and  _90
REMARK   42  A    between atoms: _90  and  _91
REMARK   43  A    between atoms: _93  and  _95
REMARK   44  A    between atoms: _95  and  _96
REMARK   45  A    between atoms: _95  and  _98
REMARK   46  A    between atoms: _101  and  _103
REMARK   47  A    between atoms: _103  and  _104
REMARK   48  A    between atoms: _107  and  _109
REMARK   49  A    between atoms: _109  and  _110
REMARK   50  A    between atoms: _112  and  _114
REMARK   51  A    between atoms: _114  and  _115
REMARK   52  A    between atoms: _114  and  _117
REMARK   53  A    between atoms: _117  and  _118
REMARK   54  A    between atoms: _120  and  _122
REMARK   55  A    between atoms: _122  and  _123
REMARK   56  A    between atoms: _122  and  _125
REMARK   57  A    between atoms: _125  and  _126
REMARK   58  A    between atoms: _129  and  _131
REMARK   59  A    between atoms: _131  and  _132
REMARK   60  A    between atoms: _131  and  _134
REMARK   61  A    between atoms: _134  and  _135
REMARK   62  A    between atoms: _140  and  _142
REMARK   63  A    between atoms: _142  and  _143
REMARK   64  A    between atoms: _146  and  _148
REMARK   65  A    between atoms: _148  and  _149
REMARK   66  A    between atoms: _148  and  _151
REMARK   67  A    between atoms: _151  and  _152
REMARK   68  A    between atoms: _154  and  _156
REMARK   69  A    between atoms: _156  and  _157
REMARK   70  A    between atoms: _159  and  _161
REMARK   71  A    between atoms: _161  and  _162
REMARK   72  A    between atoms: _161  and  _164
REMARK   73  A    between atoms: _164  and  _165
REMARK   74  A    between atoms: _168  and  _170
REMARK   75  A    between atoms: _170  and  _171
REMARK   76  A    between atoms: _170  and  _173
REMARK   77  A    between atoms: _173  and  _174
REMARK   78  A    between atoms: _174  and  _175
REMARK   79  A    between atoms: _180  and  _182
REMARK   80  A    between atoms: _182  and  _183
REMARK   81  A    between atoms: _182  and  _185
REMARK   82  A    between atoms: _185  and  _186
REMARK   83  A    between atoms: _192  and  _194
REMARK   84  A    between atoms: _194  and  _195
REMARK   85  A    between atoms: _194  and  _197
REMARK   86  A    between atoms: _200  and  _202
REMARK   87  A    between atoms: _202  and  _203
REMARK   88  A    between atoms: _202  and  _205
REMARK   89  A    between atoms: _205  and  _206
REMARK   90  A    between atoms: _211  and  _213
REMARK   91  A    between atoms: _213  and  _214
REMARK   92  A    between atoms: _213  and  _216
REMARK   93  A    between atoms: _216  and  _217
REMARK   94  A    between atoms: _219  and  _221
REMARK   95  A    between atoms: _221  and  _222
REMARK   96  A    between atoms: _221  and  _224
REMARK   97  A    between atoms: _224  and  _225
REMARK   98  A    between atoms: _225  and  _226
REMARK   99  A    between atoms: _226  and  _227
REMARK  100  A    between atoms: _227  and  _228
REMARK  101  A    between atoms: _232  and  _234
REMARK  102  A    between atoms: _234  and  _235
REMARK  103  A    between atoms: _234  and  _237
REMARK  104  A    between atoms: _237  and  _238
REMARK  105  A    between atoms: _241  and  _243
REMARK  106  A    between atoms: _243  and  _244
REMARK  107  A    between atoms: _247  and  _249
REMARK  108  A    between atoms: _249  and  _250
REMARK  109  A    between atoms: _249  and  _252
REMARK  110  A    between atoms: _255  and  _257
REMARK  111  A    between atoms: _257  and  _258
REMARK  112  A    between atoms: _257  and  _260
REMARK  113  A    between atoms: _260  and  _261
REMARK  114  A    between atoms: _261  and  _262
REMARK  115  A    between atoms: _265  and  _267
REMARK  116  A    between atoms: _267  and  _268
REMARK  117  A    between atoms: _267  and  _270
REMARK  118  A    between atoms: _270  and  _271
REMARK  119  A    between atoms: _271  and  _272
REMARK  120  A    between atoms: _274  and  _276
REMARK  121  A    between atoms: _276  and  _277
REMARK  122  A    between atoms: _276  and  _279
REMARK  123  A    between atoms: _279  and  _280
REMARK  124  A    between atoms: _280  and  _281
REMARK  125  A    between atoms: _284  and  _286
REMARK  126  A    between atoms: _286  and  _287
REMARK  127  A    between atoms: _289  and  _291
REMARK  128  A    between atoms: _291  and  _292
REMARK  129  A    between atoms: _291  and  _294
REMARK  130  A    between atoms: _294  and  _295
REMARK  131  A    between atoms: _295  and  _296
REMARK  132  A    between atoms: _296  and  _297
REMARK  133  A    between atoms: _306  and  _308
REMARK  134  A    between atoms: _308  and  _309
REMARK  135  A    between atoms: _308  and  _311
REMARK  136  A    between atoms: _311  and  _312
REMARK  137  A    between atoms: _314  and  _316
REMARK  138  A    between atoms: _316  and  _317
REMARK  139  A    between atoms: _316  and  _319
REMARK  140  A    between atoms: _319  and  _320
REMARK  141  A    between atoms: _323  and  _325
REMARK  142  A    between atoms: _325  and  _326
REMARK  143  A    between atoms: _325  and  _328
REMARK  144  A    between atoms: _328  and  _329
REMARK  145  A    between atoms: _331  and  _333
REMARK  146  A    between atoms: _333  and  _334
REMARK  147  A    between atoms: _333  and  _336
REMARK  148  A    between atoms: _336  and  _337
REMARK  149  A    between atoms: _340  and  _342
REMARK  150  A    between atoms: _342  and  _343
REMARK  151  A    between atoms: _342  and  _345
REMARK  152  A    between atoms: _345  and  _346
REMARK  153  A    between atoms: _351  and  _353
REMARK  154  A    between atoms: _353  and  _354
REMARK  155  A    between atoms: _357  and  _359
REMARK  156  A    between atoms: _359  and  _360
REMARK  157  A    between atoms: _359  and  _362
REMARK  158  A    between atoms: _362  and  _363
REMARK  159  A    between atoms: _366  and  _368
REMARK  160  A    between atoms: _368  and  _369
REMARK  161  A    between atoms: _372  and  _374
REMARK  162  A    between atoms: _374  and  _375
REMARK  163  A    between atoms: _377  and  _379
REMARK  164  A    between atoms: _379  and  _380
REMARK  165  A    between atoms: _379  and  _382
REMARK  166  A    between atoms: _382  and  _383
REMARK  167  A    between atoms: _385  and  _387
REMARK  168  A    between atoms: _387  and  _388
REMARK  169  A    between atoms: _387  and  _390
REMARK  170  A    between atoms: _390  and  _391
REMARK  171  A    between atoms: _397  and  _399
REMARK  172  A    between atoms: _399  and  _400
REMARK  173  A    between atoms: _399  and  _402
REMARK  174  A    between atoms: _402  and  _403
REMARK  175  A    between atoms: _406  and  _408
REMARK  176  A    between atoms: _408  and  _409
REMARK  177  A    between atoms: _408  and  _411
REMARK  178  A    between atoms: _411  and  _412
REMARK  179  A    between atoms: _415  and  _417
REMARK  180  A    between atoms: _417  and  _418
REMARK  181  A    between atoms: _417  and  _420
REMARK  182  A    between atoms: _420  and  _421
REMARK  183  A    between atoms: _423  and  _425
REMARK  184  A    between atoms: _425  and  _426
REMARK  185  A    between atoms: _425  and  _428
REMARK  186  A    between atoms: _428  and  _429
REMARK  187  A    between atoms: _432  and  _434
REMARK  188  A    between atoms: _434  and  _435
REMARK  189  A    between atoms: _434  and  _437
REMARK  190  A    between atoms: _437  and  _438
REMARK  191  A    between atoms: _441  and  _443
REMARK  192  A    between atoms: _443  and  _444
REMARK  193  A    between atoms: _443  and  _446
REMARK  194  A    between atoms: _446  and  _447
REMARK  195  A    between atoms: _449  and  _451
REMARK  196  A    between atoms: _451  and  _452
REMARK  197  A    between atoms: _455  and  _457
REMARK  198  A    between atoms: _457  and  _458
REMARK  199  A    between atoms: _457  and  _460
REMARK  200  A    between atoms: _460  and  _461
REMARK  201  A    between atoms: _467  and  _469
REMARK  202  A    between atoms: _469  and  _470
REMARK  203  A    between atoms: _469  and  _472
REMARK  204  A    between atoms: _472  and  _473
REMARK  205  A    between atoms: _476  and  _478
REMARK  206  A    between atoms: _478  and  _479
REMARK  207  A    between atoms: _478  and  _481
REMARK  208  A    between atoms: _481  and  _482
REMARK  209  A    between atoms: _487  and  _489
REMARK  210  A    between atoms: _489  and  _490
REMARK  211  A    between atoms: _489  and  _492
REMARK  212  A    between atoms: _492  and  _493
REMARK  213  A    between atoms: _499  and  _501
REMARK  214  A    between atoms: _501  and  _502
REMARK  215  A    between atoms: _501  and  _504
REMARK  216  A    between atoms: _504  and  _505
REMARK  217  A    between atoms: _509  and  _510
REMARK  218  A    between atoms: _515  and  _517
REMARK  219  A    between atoms: _517  and  _518
REMARK  220  A    between atoms: _517  and  _520
REMARK  221  A    between atoms: _520  and  _521
REMARK  222  A    between atoms: _521  and  _522
REMARK  223  A    between atoms: _525  and  _527
REMARK  224  A    between atoms: _527  and  _528
REMARK  225  A    between atoms: _527  and  _530
REMARK  226  A    between atoms: _530  and  _531
REMARK                            x       y       z     vdW  Elec       q    Type
REMARK                         _______ _______ _______ _____ _____    ______ ____
ROOT
ATOM      1  O   HOH     1      39.929  84.416  22.031  0.00  0.00    +0.000 OA
ENDROOT
TORSDOF 0
REMARK  Name = ../refined-set-2016/4wkp/4wkp_pocket.pdb
REMARK  226 active torsions:
REMARK  status: ('A' for Active; 'I' for Inactive)
REMARK    1  A    between atoms: _1  and  _3
REMARK    2  A    between atoms: _3  and  _4
REMARK    3  A    between atoms: _6  and  _8
REMARK    4  A    between atoms: _8  and  _9
REMARK    5  A    between atoms: _12  and  _14
REMARK    6  A    between atoms: _14  and  _15
REMARK    7  A    between atoms: _14  and  _17
REMARK    8  A    between atoms: _17  and  _18
REMARK    9  A    between atoms: _18  and  _19
REMARK   10  A    between atoms: _21  and  _23
REMARK   11  A    between atoms: _23  and  _24
REMARK   12  A    between atoms: _23  and  _26
REMARK   13  A    between atoms: _26  and  _27
REMARK   14  A    between atoms: _27  and  _28
REMARK   15  A    between atoms: _31  and  _33
REMARK   16  A    between atoms: _33  and  _34
REMARK   17  A    between atoms: _33  and  _36
REMARK   18  A    between atoms: _36  and  _37
REMARK   19  A    between atoms: _37  and  _38
REMARK   20  A    between atoms: _41  and  _43
REMARK   21  A    between atoms: _43  and  _44
REMARK   22  A    between atoms: _43  and  _46
REMARK   23  A    between atoms: _46  and  _47
REMARK   24  A    between atoms: _49  and  _51
REMARK   25  A    between atoms: _51  and  _52
REMARK   26  A    between atoms: _51  and  _54
REMARK   27  A    between atoms: _54  and  _55
REMARK   28  A    between atoms: _55  and  _56
REMARK   29  A    between atoms: _56  and  _57
REMARK   30  A    between atoms: _57  and  _58
REMARK   31  A    between atoms: _62  and  _64
REMARK   32  A    between atoms: _64  and  _65
REMARK   33  A    between atoms: _64  and  _67
REMARK   34  A    between atoms: _67  and  _68
REMARK   35  A    between atoms: _71  and  _73
REMARK   36  A    between atoms: _73  and  _74
REMARK   37  A    between atoms: _76  and  _78
REMARK   38  A    between atoms: _78  and  _79
REMARK   39  A    between atoms: _78  and  _81
REMARK   40  A    between atoms: _81  and  _82
REMARK   41  A    between atoms: _88  and  _90
REMARK   42  A    between atoms: _90  and  _91
REMARK   43  A    between atoms: _93  and  _95
REMARK   44  A    between atoms: _95  and  _96
REMARK   45  A    between atoms: _95  and  _98
REMARK   46  A    between atoms: _101  and  _103
REMARK   47  A    between atoms: _103  and  _104
REMARK   48  A    between atoms: _107  and  _109
REMARK   49  A    between atoms: _109  and  _110
REMARK   50  A    between atoms: _112  and  _114
REMARK   51  A    between atoms: _114  and  _115
REMARK   52  A    between atoms: _114  and  _117
REMARK   53  A    between atoms: _117  and  _118
REMARK   54  A    between atoms: _120  and  _122
REMARK   55  A    between atoms: _122  and  _123
REMARK   56  A    between atoms: _122  and  _125
REMARK   57  A    between atoms: _125  and  _126
REMARK   58  A    between atoms: _129  and  _131
REMARK   59  A    between atoms: _131  and  _132
REMARK   60  A    between atoms: _131  and  _134
REMARK   61  A    between atoms: _134  and  _135
REMARK   62  A    between atoms: _140  and  _142
REMARK   63  A    between atoms: _142  and  _143
REMARK   64  A    between atoms: _146  and  _148
REMARK   65  A    between atoms: _148  and  _149
REMARK   66  A    between atoms: _148  and  _151
REMARK   67  A    between atoms: _151  and  _152
REMARK   68  A    between atoms: _154  and  _156
REMARK   69  A    between atoms: _156  and  _157
REMARK   70  A    between atoms: _159  and  _161
REMARK   71  A    between atoms: _161  and  _162
REMARK   72  A    between atoms: _161  and  _164
REMARK   73  A    between atoms: _164  and  _165
REMARK   74  A    between atoms: _168  and  _170
REMARK   75  A    between atoms: _170  and  _171
REMARK   76  A    between atoms: _170  and  _173
REMARK   77  A    between atoms: _173  and  _174
REMARK   78  A    between atoms: _174  and  _175
REMARK   79  A    between atoms: _180  and  _182
REMARK   80  A    between atoms: _182  and  _183
REMARK   81  A    between atoms: _182  and  _185
REMARK   82  A    between atoms: _185  and  _186
REMARK   83  A    between atoms: _192  and  _194
REMARK   84  A    between atoms: _194  and  _195
REMARK   85  A    between atoms: _194  and  _197
REMARK   86  A    between atoms: _200  and  _202
REMARK   87  A    between atoms: _202  and  _203
REMARK   88  A    between atoms: _202  and  _205
REMARK   89  A    between atoms: _205  and  _206
REMARK   90  A    between atoms: _211  and  _213
REMARK   91  A    between atoms: _213  and  _214
REMARK   92  A    between atoms: _213  and  _216
REMARK   93  A    between atoms: _216  and  _217
REMARK   94  A    between atoms: _219  and  _221
REMARK   95  A    between atoms: _221  and  _222
REMARK   96  A    between atoms: _221  and  _224
REMARK   97  A    between atoms: _224  and  _225
REMARK   98  A    between atoms: _225  and  _226
REMARK   99  A    between atoms: _226  and  _227
REMARK  100  A    between atoms: _227  and  _228
REMARK  101  A    between atoms: _232  and  _234
REMARK  102  A    between atoms: _234  and  _235
REMARK  103  A    between atoms: _234  and  _237
REMARK  104  A    between atoms: _237  and  _238
REMARK  105  A    between atoms: _241  and  _243
REMARK  106  A    between atoms: _243  and  _244
REMARK  107  A    between atoms: _247  and  _249
REMARK  108  A    between atoms: _249  and  _250
REMARK  109  A    between atoms: _249  and  _252
REMARK  110  A    between atoms: _255  and  _257
REMARK  111  A    between atoms: _257  and  _258
REMARK  112  A    between atoms: _257  and  _260
REMARK  113  A    between atoms: _260  and  _261
REMARK  114  A    between atoms: _261  and  _262
REMARK  115  A    between atoms: _265  and  _267
REMARK  116  A    between atoms: _267  and  _268
REMARK  117  A    between atoms: _267  and  _270
REMARK  118  A    between atoms: _270  and  _271
REMARK  119  A    between atoms: _271  and  _272
REMARK  120  A    between atoms: _274  and  _276
REMARK  121  A    between atoms: _276  and  _277
REMARK  122  A    between atoms: _276  and  _279
REMARK  123  A    between atoms: _279  and  _280
REMARK  124  A    between atoms: _280  and  _281
REMARK  125  A    between atoms: _284  and  _286
REMARK  126  A    between atoms: _286  and  _287
REMARK  127  A    between atoms: _289  and  _291
REMARK  128  A    between atoms: _291  and  _292
REMARK  129  A    between atoms: _291  and  _294
REMARK  130  A    between atoms: _294  and  _295
REMARK  131  A    between atoms: _295  and  _296
REMARK  132  A    between atoms: _296  and  _297
REMARK  133  A    between atoms: _306  and  _308
REMARK  134  A    between atoms: _308  and  _309
REMARK  135  A    between atoms: _308  and  _311
REMARK  136  A    between atoms: _311  and  _312
REMARK  137  A    between atoms: _314  and  _316
REMARK  138  A    between atoms: _316  and  _317
REMARK  139  A    between atoms: _316  and  _319
REMARK  140  A    between atoms: _319  and  _320
REMARK  141  A    between atoms: _323  and  _325
REMARK  142  A    between atoms: _325  and  _326
REMARK  143  A    between atoms: _325  and  _328
REMARK  144  A    between atoms: _328  and  _329
REMARK  145  A    between atoms: _331  and  _333
REMARK  146  A    between atoms: _333  and  _334
REMARK  147  A    between atoms: _333  and  _336
REMARK  148  A    between atoms: _336  and  _337
REMARK  149  A    between atoms: _340  and  _342
REMARK  150  A    between atoms: _342  and  _343
REMARK  151  A    between atoms: _342  and  _345
REMARK  152  A    between atoms: _345  and  _346
REMARK  153  A    between atoms: _351  and  _353
REMARK  154  A    between atoms: _353  and  _354
REMARK  155  A    between atoms: _357  and  _359
REMARK  156  A    between atoms: _359  and  _360
REMARK  157  A    between atoms: _359  and  _362
REMARK  158  A    between atoms: _362  and  _363
REMARK  159  A    between atoms: _366  and  _368
REMARK  160  A    between atoms: _368  and  _369
REMARK  161  A    between atoms: _372  and  _374
REMARK  162  A    between atoms: _374  and  _375
REMARK  163  A    between atoms: _377  and  _379
REMARK  164  A    between atoms: _379  and  _380
REMARK  165  A    between atoms: _379  and  _382
REMARK  166  A    between atoms: _382  and  _383
REMARK  167  A    between atoms: _385  and  _387
REMARK  168  A    between atoms: _387  and  _388
REMARK  169  A    between atoms: _387  and  _390
REMARK  170  A    between atoms: _390  and  _391
REMARK  171  A    between atoms: _397  and  _399
REMARK  172  A    between atoms: _399  and  _400
REMARK  173  A    between atoms: _399  and  _402
REMARK  174  A    between atoms: _402  and  _403
REMARK  175  A    between atoms: _406  and  _408
REMARK  176  A    between atoms: _408  and  _409
REMARK  177  A    between atoms: _408  and  _411
REMARK  178  A    between atoms: _411  and  _412
REMARK  179  A    between atoms: _415  and  _417
REMARK  180  A    between atoms: _417  and  _418
REMARK  181  A    between atoms: _417  and  _420
REMARK  182  A    between atoms: _420  and  _421
REMARK  183  A    between atoms: _423  and  _425
REMARK  184  A    between atoms: _425  and  _426
REMARK  185  A    between atoms: _425  and  _428
REMARK  186  A    between atoms: _428  and  _429
REMARK  187  A    between atoms: _432  and  _434
REMARK  188  A    between atoms: _434  and  _435
REMARK  189  A    between atoms: _434  and  _437
REMARK  190  A    between atoms: _437  and  _438
REMARK  191  A    between atoms: _441  and  _443
REMARK  192  A    between atoms: _443  and  _444
REMARK  193  A    between atoms: _443  and  _446
REMARK  194  A    between atoms: _446  and  _447
REMARK  195  A    between atoms: _449  and  _451
REMARK  196  A    between atoms: _451  and  _452
REMARK  197  A    between atoms: _455  and  _457
REMARK  198  A    between atoms: _457  and  _458
REMARK  199  A    between atoms: _457  and  _460
REMARK  200  A    between atoms: _460  and  _461
REMARK  201  A    between atoms: _467  and  _469
REMARK  202  A    between atoms: _469  and  _470
REMARK  203  A    between atoms: _469  and  _472
REMARK  204  A    between atoms: _472  and  _473
REMARK  205  A    between atoms: _476  and  _478
REMARK  206  A    between atoms: _478  and  _479
REMARK  207  A    between atoms: _478  and  _481
REMARK  208  A    between atoms: _481  and  _482
REMARK  209  A    between atoms: _487  and  _489
REMARK  210  A    between atoms: _489  and  _490
REMARK  211  A    between atoms: _489  and  _492
REMARK  212  A    between atoms: _492  and  _493
REMARK  213  A    between atoms: _499  and  _501
REMARK  214  A    between atoms: _501  and  _502
REMARK  215  A    between atoms: _501  and  _504
REMARK  216  A    between atoms: _504  and  _505
REMARK  217  A    between atoms: _509  and  _510
REMARK  218  A    between atoms: _515  and  _517
REMARK  219  A    between atoms: _517  and  _518
REMARK  220  A    between atoms: _517  and  _520
REMARK  221  A    between atoms: _520  and  _521
REMARK  222  A    between atoms: _521  and  _522
REMARK  223  A    between atoms: _525  and  _527
REMARK  224  A    between atoms: _527  and  _528
REMARK  225  A    between atoms: _527  and  _530
REMARK  226  A    between atoms: _530  and  _531
REMARK                            x       y       z     vdW  Elec       q    Type
REMARK                         _______ _______ _______ _____ _____    ______ ____
ROOT
ATOM      1  O   HOH     1      47.313  79.332  22.857  0.00  0.00    +0.000 OA
ENDROOT
TORSDOF 0
REMARK  Name = ../refined-set-2016/4wkp/4wkp_pocket.pdb
REMARK  226 active torsions:
REMARK  status: ('A' for Active; 'I' for Inactive)
REMARK    1  A    between atoms: _1  and  _3
REMARK    2  A    between atoms: _3  and  _4
REMARK    3  A    between atoms: _6  and  _8
REMARK    4  A    between atoms: _8  and  _9
REMARK    5  A    between atoms: _12  and  _14
REMARK    6  A    between atoms: _14  and  _15
REMARK    7  A    between atoms: _14  and  _17
REMARK    8  A    between atoms: _17  and  _18
REMARK    9  A    between atoms: _18  and  _19
REMARK   10  A    between atoms: _21  and  _23
REMARK   11  A    between atoms: _23  and  _24
REMARK   12  A    between atoms: _23  and  _26
REMARK   13  A    between atoms: _26  and  _27
REMARK   14  A    between atoms: _27  and  _28
REMARK   15  A    between atoms: _31  and  _33
REMARK   16  A    between atoms: _33  and  _34
REMARK   17  A    between atoms: _33  and  _36
REMARK   18  A    between atoms: _36  and  _37
REMARK   19  A    between atoms: _37  and  _38
REMARK   20  A    between atoms: _41  and  _43
REMARK   21  A    between atoms: _43  and  _44
REMARK   22  A    between atoms: _43  and  _46
REMARK   23  A    between atoms: _46  and  _47
REMARK   24  A    between atoms: _49  and  _51
REMARK   25  A    between atoms: _51  and  _52
REMARK   26  A    between atoms: _51  and  _54
REMARK   27  A    between atoms: _54  and  _55
REMARK   28  A    between atoms: _55  and  _56
REMARK   29  A    between atoms: _56  and  _57
REMARK   30  A    between atoms: _57  and  _58
REMARK   31  A    between atoms: _62  and  _64
REMARK   32  A    between atoms: _64  and  _65
REMARK   33  A    between atoms: _64  and  _67
REMARK   34  A    between atoms: _67  and  _68
REMARK   35  A    between atoms: _71  and  _73
REMARK   36  A    between atoms: _73  and  _74
REMARK   37  A    between atoms: _76  and  _78
REMARK   38  A    between atoms: _78  and  _79
REMARK   39  A    between atoms: _78  and  _81
REMARK   40  A    between atoms: _81  and  _82
REMARK   41  A    between atoms: _88  and  _90
REMARK   42  A    between atoms: _90  and  _91
REMARK   43  A    between atoms: _93  and  _95
REMARK   44  A    between atoms: _95  and  _96
REMARK   45  A    between atoms: _95  and  _98
REMARK   46  A    between atoms: _101  and  _103
REMARK   47  A    between atoms: _103  and  _104
REMARK   48  A    between atoms: _107  and  _109
REMARK   49  A    between atoms: _109  and  _110
REMARK   50  A    between atoms: _112  and  _114
REMARK   51  A    between atoms: _114  and  _115
REMARK   52  A    between atoms: _114  and  _117
REMARK   53  A    between atoms: _117  and  _118
REMARK   54  A    between atoms: _120  and  _122
REMARK   55  A    between atoms: _122  and  _123
REMARK   56  A    between atoms: _122  and  _125
REMARK   57  A    between atoms: _125  and  _126
REMARK   58  A    between atoms: _129  and  _131
REMARK   59  A    between atoms: _131  and  _132
REMARK   60  A    between atoms: _131  and  _134
REMARK   61  A    between atoms: _134  and  _135
REMARK   62  A    between atoms: _140  and  _142
REMARK   63  A    between atoms: _142  and  _143
REMARK   64  A    between atoms: _146  and  _148
REMARK   65  A    between atoms: _148  and  _149
REMARK   66  A    between atoms: _148  and  _151
REMARK   67  A    between atoms: _151  and  _152
REMARK   68  A    between atoms: _154  and  _156
REMARK   69  A    between atoms: _156  and  _157
REMARK   70  A    between atoms: _159  and  _161
REMARK   71  A    between atoms: _161  and  _162
REMARK   72  A    between atoms: _161  and  _164
REMARK   73  A    between atoms: _164  and  _165
REMARK   74  A    between atoms: _168  and  _170
REMARK   75  A    between atoms: _170  and  _171
REMARK   76  A    between atoms: _170  and  _173
REMARK   77  A    between atoms: _173  and  _174
REMARK   78  A    between atoms: _174  and  _175
REMARK   79  A    between atoms: _180  and  _182
REMARK   80  A    between atoms: _182  and  _183
REMARK   81  A    between atoms: _182  and  _185
REMARK   82  A    between atoms: _185  and  _186
REMARK   83  A    between atoms: _192  and  _194
REMARK   84  A    between atoms: _194  and  _195
REMARK   85  A    between atoms: _194  and  _197
REMARK   86  A    between atoms: _200  and  _202
REMARK   87  A    between atoms: _202  and  _203
REMARK   88  A    between atoms: _202  and  _205
REMARK   89  A    between atoms: _205  and  _206
REMARK   90  A    between atoms: _211  and  _213
REMARK   91  A    between atoms: _213  and  _214
REMARK   92  A    between atoms: _213  and  _216
REMARK   93  A    between atoms: _216  and  _217
REMARK   94  A    between atoms: _219  and  _221
REMARK   95  A    between atoms: _221  and  _222
REMARK   96  A    between atoms: _221  and  _224
REMARK   97  A    between atoms: _224  and  _225
REMARK   98  A    between atoms: _225  and  _226
REMARK   99  A    between atoms: _226  and  _227
REMARK  100  A    between atoms: _227  and  _228
REMARK  101  A    between atoms: _232  and  _234
REMARK  102  A    between atoms: _234  and  _235
REMARK  103  A    between atoms: _234  and  _237
REMARK  104  A    between atoms: _237  and  _238
REMARK  105  A    between atoms: _241  and  _243
REMARK  106  A    between atoms: _243  and  _244
REMARK  107  A    between atoms: _247  and  _249
REMARK  108  A    between atoms: _249  and  _250
REMARK  109  A    between atoms: _249  and  _252
REMARK  110  A    between atoms: _255  and  _257
REMARK  111  A    between atoms: _257  and  _258
REMARK  112  A    between atoms: _257  and  _260
REMARK  113  A    between atoms: _260  and  _261
REMARK  114  A    between atoms: _261  and  _262
REMARK  115  A    between atoms: _265  and  _267
REMARK  116  A    between atoms: _267  and  _268
REMARK  117  A    between atoms: _267  and  _270
REMARK  118  A    between atoms: _270  and  _271
REMARK  119  A    between atoms: _271  and  _272
REMARK  120  A    between atoms: _274  and  _276
REMARK  121  A    between atoms: _276  and  _277
REMARK  122  A    between atoms: _276  and  _279
REMARK  123  A    between atoms: _279  and  _280
REMARK  124  A    between atoms: _280  and  _281
REMARK  125  A    between atoms: _284  and  _286
REMARK  126  A    between atoms: _286  and  _287
REMARK  127  A    between atoms: _289  and  _291
REMARK  128  A    between atoms: _291  and  _292
REMARK  129  A    between atoms: _291  and  _294
REMARK  130  A    between atoms: _294  and  _295
REMARK  131  A    between atoms: _295  and  _296
REMARK  132  A    between atoms: _296  and  _297
REMARK  133  A    between atoms: _306  and  _308
REMARK  134  A    between atoms: _308  and  _309
REMARK  135  A    between atoms: _308  and  _311
REMARK  136  A    between atoms: _311  and  _312
REMARK  137  A    between atoms: _314  and  _316
REMARK  138  A    between atoms: _316  and  _317
REMARK  139  A    between atoms: _316  and  _319
REMARK  140  A    between atoms: _319  and  _320
REMARK  141  A    between atoms: _323  and  _325
REMARK  142  A    between atoms: _325  and  _326
REMARK  143  A    between atoms: _325  and  _328
REMARK  144  A    between atoms: _328  and  _329
REMARK  145  A    between atoms: _331  and  _333
REMARK  146  A    between atoms: _333  and  _334
REMARK  147  A    between atoms: _333  and  _336
REMARK  148  A    between atoms: _336  and  _337
REMARK  149  A    between atoms: _340  and  _342
REMARK  150  A    between atoms: _342  and  _343
REMARK  151  A    between atoms: _342  and  _345
REMARK  152  A    between atoms: _345  and  _346
REMARK  153  A    between atoms: _351  and  _353
REMARK  154  A    between atoms: _353  and  _354
REMARK  155  A    between atoms: _357  and  _359
REMARK  156  A    between atoms: _359  and  _360
REMARK  157  A    between atoms: _359  and  _362
REMARK  158  A    between atoms: _362  and  _363
REMARK  159  A    between atoms: _366  and  _368
REMARK  160  A    between atoms: _368  and  _369
REMARK  161  A    between atoms: _372  and  _374
REMARK  162  A    between atoms: _374  and  _375
REMARK  163  A    between atoms: _377  and  _379
REMARK  164  A    between atoms: _379  and  _380
REMARK  165  A    between atoms: _379  and  _382
REMARK  166  A    between atoms: _382  and  _383
REMARK  167  A    between atoms: _385  and  _387
REMARK  168  A    between atoms: _387  and  _388
REMARK  169  A    between atoms: _387  and  _390
REMARK  170  A    between atoms: _390  and  _391
REMARK  171  A    between atoms: _397  and  _399
REMARK  172  A    between atoms: _399  and  _400
REMARK  173  A    between atoms: _399  and  _402
REMARK  174  A    between atoms: _402  and  _403
REMARK  175  A    between atoms: _406  and  _408
REMARK  176  A    between atoms: _408  and  _409
REMARK  177  A    between atoms: _408  and  _411
REMARK  178  A    between atoms: _411  and  _412
REMARK  179  A    between atoms: _415  and  _417
REMARK  180  A    between atoms: _417  and  _418
REMARK  181  A    between atoms: _417  and  _420
REMARK  182  A    between atoms: _420  and  _421
REMARK  183  A    between atoms: _423  and  _425
REMARK  184  A    between atoms: _425  and  _426
REMARK  185  A    between atoms: _425  and  _428
REMARK  186  A    between atoms: _428  and  _429
REMARK  187  A    between atoms: _432  and  _434
REMARK  188  A    between atoms: _434  and  _435
REMARK  189  A    between atoms: _434  and  _437
REMARK  190  A    between atoms: _437  and  _438
REMARK  191  A    between atoms: _441  and  _443
REMARK  192  A    between atoms: _443  and  _444
REMARK  193  A    between atoms: _443  and  _446
REMARK  194  A    between atoms: _446  and  _447
REMARK  195  A    between atoms: _449  and  _451
REMARK  196  A    between atoms: _451  and  _452
REMARK  197  A    between atoms: _455  and  _457
REMARK  198  A    between atoms: _457  and  _458
REMARK  199  A    between atoms: _457  and  _460
REMARK  200  A    between atoms: _460  and  _461
REMARK  201  A    between atoms: _467  and  _469
REMARK  202  A    between atoms: _469  and  _470
REMARK  203  A    between atoms: _469  and  _472
REMARK  204  A    between atoms: _472  and  _473
REMARK  205  A    between atoms: _476  and  _478
REMARK  206  A    between atoms: _478  and  _479
REMARK  207  A    between atoms: _478  and  _481
REMARK  208  A    between atoms: _481  and  _482
REMARK  209  A    between atoms: _487  and  _489
REMARK  210  A    between atoms: _489  and  _490
REMARK  211  A    between atoms: _489  and  _492
REMARK  212  A    between atoms: _492  and  _493
REMARK  213  A    between atoms: _499  and  _501
REMARK  214  A    between atoms: _501  and  _502
REMARK  215  A    between atoms: _501  and  _504
REMARK  216  A    between atoms: _504  and  _505
REMARK  217  A    between atoms: _509  and  _510
REMARK  218  A    between atoms: _515  and  _517
REMARK  219  A    between atoms: _517  and  _518
REMARK  220  A    between atoms: _517  and  _520
REMARK  221  A    between atoms: _520  and  _521
REMARK  222  A    between atoms: _521  and  _522
REMARK  223  A    between atoms: _525  and  _527
REMARK  224  A    between atoms: _527  and  _528
REMARK  225  A    between atoms: _527  and  _530
REMARK  226  A    between atoms: _530  and  _531
REMARK                            x       y       z     vdW  Elec       q    Type
REMARK                         _______ _______ _______ _____ _____    ______ ____
ROOT
ATOM      1  O   HOH     1      39.481  75.380  10.231  0.00  0.00    +0.000 OA
ENDROOT
TORSDOF 0
REMARK  Name = ../refined-set-2016/4wkp/4wkp_pocket.pdb
REMARK  226 active torsions:
REMARK  status: ('A' for Active; 'I' for Inactive)
REMARK    1  A    between atoms: _1  and  _3
REMARK    2  A    between atoms: _3  and  _4
REMARK    3  A    between atoms: _6  and  _8
REMARK    4  A    between atoms: _8  and  _9
REMARK    5  A    between atoms: _12  and  _14
REMARK    6  A    between atoms: _14  and  _15
REMARK    7  A    between atoms: _14  and  _17
REMARK    8  A    between atoms: _17  and  _18
REMARK    9  A    between atoms: _18  and  _19
REMARK   10  A    between atoms: _21  and  _23
REMARK   11  A    between atoms: _23  and  _24
REMARK   12  A    between atoms: _23  and  _26
REMARK   13  A    between atoms: _26  and  _27
REMARK   14  A    between atoms: _27  and  _28
REMARK   15  A    between atoms: _31  and  _33
REMARK   16  A    between atoms: _33  and  _34
REMARK   17  A    between atoms: _33  and  _36
REMARK   18  A    between atoms: _36  and  _37
REMARK   19  A    between atoms: _37  and  _38
REMARK   20  A    between atoms: _41  and  _43
REMARK   21  A    between atoms: _43  and  _44
REMARK   22  A    between atoms: _43  and  _46
REMARK   23  A    between atoms: _46  and  _47
REMARK   24  A    between atoms: _49  and  _51
REMARK   25  A    between atoms: _51  and  _52
REMARK   26  A    between atoms: _51  and  _54
REMARK   27  A    between atoms: _54  and  _55
REMARK   28  A    between atoms: _55  and  _56
REMARK   29  A    between atoms: _56  and  _57
REMARK   30  A    between atoms: _57  and  _58
REMARK   31  A    between atoms: _62  and  _64
REMARK   32  A    between atoms: _64  and  _65
REMARK   33  A    between atoms: _64  and  _67
REMARK   34  A    between atoms: _67  and  _68
REMARK   35  A    between atoms: _71  and  _73
REMARK   36  A    between atoms: _73  and  _74
REMARK   37  A    between atoms: _76  and  _78
REMARK   38  A    between atoms: _78  and  _79
REMARK   39  A    between atoms: _78  and  _81
REMARK   40  A    between atoms: _81  and  _82
REMARK   41  A    between atoms: _88  and  _90
REMARK   42  A    between atoms: _90  and  _91
REMARK   43  A    between atoms: _93  and  _95
REMARK   44  A    between atoms: _95  and  _96
REMARK   45  A    between atoms: _95  and  _98
REMARK   46  A    between atoms: _101  and  _103
REMARK   47  A    between atoms: _103  and  _104
REMARK   48  A    between atoms: _107  and  _109
REMARK   49  A    between atoms: _109  and  _110
REMARK   50  A    between atoms: _112  and  _114
REMARK   51  A    between atoms: _114  and  _115
REMARK   52  A    between atoms: _114  and  _117
REMARK   53  A    between atoms: _117  and  _118
REMARK   54  A    between atoms: _120  and  _122
REMARK   55  A    between atoms: _122  and  _123
REMARK   56  A    between atoms: _122  and  _125
REMARK   57  A    between atoms: _125  and  _126
REMARK   58  A    between atoms: _129  and  _131
REMARK   59  A    between atoms: _131  and  _132
REMARK   60  A    between atoms: _131  and  _134
REMARK   61  A    between atoms: _134  and  _135
REMARK   62  A    between atoms: _140  and  _142
REMARK   63  A    between atoms: _142  and  _143
REMARK   64  A    between atoms: _146  and  _148
REMARK   65  A    between atoms: _148  and  _149
REMARK   66  A    between atoms: _148  and  _151
REMARK   67  A    between atoms: _151  and  _152
REMARK   68  A    between atoms: _154  and  _156
REMARK   69  A    between atoms: _156  and  _157
REMARK   70  A    between atoms: _159  and  _161
REMARK   71  A    between atoms: _161  and  _162
REMARK   72  A    between atoms: _161  and  _164
REMARK   73  A    between atoms: _164  and  _165
REMARK   74  A    between atoms: _168  and  _170
REMARK   75  A    between atoms: _170  and  _171
REMARK   76  A    between atoms: _170  and  _173
REMARK   77  A    between atoms: _173  and  _174
REMARK   78  A    between atoms: _174  and  _175
REMARK   79  A    between atoms: _180  and  _182
REMARK   80  A    between atoms: _182  and  _183
REMARK   81  A    between atoms: _182  and  _185
REMARK   82  A    between atoms: _185  and  _186
REMARK   83  A    between atoms: _192  and  _194
REMARK   84  A    between atoms: _194  and  _195
REMARK   85  A    between atoms: _194  and  _197
REMARK   86  A    between atoms: _200  and  _202
REMARK   87  A    between atoms: _202  and  _203
REMARK   88  A    between atoms: _202  and  _205
REMARK   89  A    between atoms: _205  and  _206
REMARK   90  A    between atoms: _211  and  _213
REMARK   91  A    between atoms: _213  and  _214
REMARK   92  A    between atoms: _213  and  _216
REMARK   93  A    between atoms: _216  and  _217
REMARK   94  A    between atoms: _219  and  _221
REMARK   95  A    between atoms: _221  and  _222
REMARK   96  A    between atoms: _221  and  _224
REMARK   97  A    between atoms: _224  and  _225
REMARK   98  A    between atoms: _225  and  _226
REMARK   99  A    between atoms: _226  and  _227
REMARK  100  A    between atoms: _227  and  _228
REMARK  101  A    between atoms: _232  and  _234
REMARK  102  A    between atoms: _234  and  _235
REMARK  103  A    between atoms: _234  and  _237
REMARK  104  A    between atoms: _237  and  _238
REMARK  105  A    between atoms: _241  and  _243
REMARK  106  A    between atoms: _243  and  _244
REMARK  107  A    between atoms: _247  and  _249
REMARK  108  A    between atoms: _249  and  _250
REMARK  109  A    between atoms: _249  and  _252
REMARK  110  A    between atoms: _255  and  _257
REMARK  111  A    between atoms: _257  and  _258
REMARK  112  A    between atoms: _257  and  _260
REMARK  113  A    between atoms: _260  and  _261
REMARK  114  A    between atoms: _261  and  _262
REMARK  115  A    between atoms: _265  and  _267
REMARK  116  A    between atoms: _267  and  _268
REMARK  117  A    between atoms: _267  and  _270
REMARK  118  A    between atoms: _270  and  _271
REMARK  119  A    between atoms: _271  and  _272
REMARK  120  A    between atoms: _274  and  _276
REMARK  121  A    between atoms: _276  and  _277
REMARK  122  A    between atoms: _276  and  _279
REMARK  123  A    between atoms: _279  and  _280
REMARK  124  A    between atoms: _280  and  _281
REMARK  125  A    between atoms: _284  and  _286
REMARK  126  A    between atoms: _286  and  _287
REMARK  127  A    between atoms: _289  and  _291
REMARK  128  A    between atoms: _291  and  _292
REMARK  129  A    between atoms: _291  and  _294
REMARK  130  A    between atoms: _294  and  _295
REMARK  131  A    between atoms: _295  and  _296
REMARK  132  A    between atoms: _296  and  _297
REMARK  133  A    between atoms: _306  and  _308
REMARK  134  A    between atoms: _308  and  _309
REMARK  135  A    between atoms: _308  and  _311
REMARK  136  A    between atoms: _311  and  _312
REMARK  137  A    between atoms: _314  and  _316
REMARK  138  A    between atoms: _316  and  _317
REMARK  139  A    between atoms: _316  and  _319
REMARK  140  A    between atoms: _319  and  _320
REMARK  141  A    between atoms: _323  and  _325
REMARK  142  A    between atoms: _325  and  _326
REMARK  143  A    between atoms: _325  and  _328
REMARK  144  A    between atoms: _328  and  _329
REMARK  145  A    between atoms: _331  and  _333
REMARK  146  A    between atoms: _333  and  _334
REMARK  147  A    between atoms: _333  and  _336
REMARK  148  A    between atoms: _336  and  _337
REMARK  149  A    between atoms: _340  and  _342
REMARK  150  A    between atoms: _342  and  _343
REMARK  151  A    between atoms: _342  and  _345
REMARK  152  A    between atoms: _345  and  _346
REMARK  153  A    between atoms: _351  and  _353
REMARK  154  A    between atoms: _353  and  _354
REMARK  155  A    between atoms: _357  and  _359
REMARK  156  A    between atoms: _359  and  _360
REMARK  157  A    between atoms: _359  and  _362
REMARK  158  A    between atoms: _362  and  _363
REMARK  159  A    between atoms: _366  and  _368
REMARK  160  A    between atoms: _368  and  _369
REMARK  161  A    between atoms: _372  and  _374
REMARK  162  A    between atoms: _374  and  _375
REMARK  163  A    between atoms: _377  and  _379
REMARK  164  A    between atoms: _379  and  _380
REMARK  165  A    between atoms: _379  and  _382
REMARK  166  A    between atoms: _382  and  _383
REMARK  167  A    between atoms: _385  and  _387
REMARK  168  A    between atoms: _387  and  _388
REMARK  169  A    between atoms: _387  and  _390
REMARK  170  A    between atoms: _390  and  _391
REMARK  171  A    between atoms: _397  and  _399
REMARK  172  A    between atoms: _399  and  _400
REMARK  173  A    between atoms: _399  and  _402
REMARK  174  A    between atoms: _402  and  _403
REMARK  175  A    between atoms: _406  and  _408
REMARK  176  A    between atoms: _408  and  _409
REMARK  177  A    between atoms: _408  and  _411
REMARK  178  A    between atoms: _411  and  _412
REMARK  179  A    between atoms: _415  and  _417
REMARK  180  A    between atoms: _417  and  _418
REMARK  181  A    between atoms: _417  and  _420
REMARK  182  A    between atoms: _420  and  _421
REMARK  183  A    between atoms: _423  and  _425
REMARK  184  A    between atoms: _425  and  _426
REMARK  185  A    between atoms: _425  and  _428
REMARK  186  A    between atoms: _428  and  _429
REMARK  187  A    between atoms: _432  and  _434
REMARK  188  A    between atoms: _434  and  _435
REMARK  189  A    between atoms: _434  and  _437
REMARK  190  A    between atoms: _437  and  _438
REMARK  191  A    between atoms: _441  and  _443
REMARK  192  A    between atoms: _443  and  _444
REMARK  193  A    between atoms: _443  and  _446
REMARK  194  A    between atoms: _446  and  _447
REMARK  195  A    between atoms: _449  and  _451
REMARK  196  A    between atoms: _451  and  _452
REMARK  197  A    between atoms: _455  and  _457
REMARK  198  A    between atoms: _457  and  _458
REMARK  199  A    between atoms: _457  and  _460
REMARK  200  A    between atoms: _460  and  _461
REMARK  201  A    between atoms: _467  and  _469
REMARK  202  A    between atoms: _469  and  _470
REMARK  203  A    between atoms: _469  and  _472
REMARK  204  A    between atoms: _472  and  _473
REMARK  205  A    between atoms: _476  and  _478
REMARK  206  A    between atoms: _478  and  _479
REMARK  207  A    between atoms: _478  and  _481
REMARK  208  A    between atoms: _481  and  _482
REMARK  209  A    between atoms: _487  and  _489
REMARK  210  A    between atoms: _489  and  _490
REMARK  211  A    between atoms: _489  and  _492
REMARK  212  A    between atoms: _492  and  _493
REMARK  213  A    between atoms: _499  and  _501
REMARK  214  A    between atoms: _501  and  _502
REMARK  215  A    between atoms: _501  and  _504
REMARK  216  A    between atoms: _504  and  _505
REMARK  217  A    between atoms: _509  and  _510
REMARK  218  A    between atoms: _515  and  _517
REMARK  219  A    between atoms: _517  and  _518
REMARK  220  A    between atoms: _517  and  _520
REMARK  221  A    between atoms: _520  and  _521
REMARK  222  A    between atoms: _521  and  _522
REMARK  223  A    between atoms: _525  and  _527
REMARK  224  A    between atoms: _527  and  _528
REMARK  225  A    between atoms: _527  and  _530
REMARK  226  A    between atoms: _530  and  _531
REMARK                            x       y       z     vdW  Elec       q    Type
REMARK                         _______ _______ _______ _____ _____    ______ ____
ROOT
ATOM      1  O   HOH     1      35.425  70.069  11.469  0.00  0.00    +0.000 OA
ENDROOT
TORSDOF 0
REMARK  Name = ../refined-set-2016/4wkp/4wkp_pocket.pdb
REMARK  226 active torsions:
REMARK  status: ('A' for Active; 'I' for Inactive)
REMARK    1  A    between atoms: _1  and  _3
REMARK    2  A    between atoms: _3  and  _4
REMARK    3  A    between atoms: _6  and  _8
REMARK    4  A    between atoms: _8  and  _9
REMARK    5  A    between atoms: _12  and  _14
REMARK    6  A    between atoms: _14  and  _15
REMARK    7  A    between atoms: _14  and  _17
REMARK    8  A    between atoms: _17  and  _18
REMARK    9  A    between atoms: _18  and  _19
REMARK   10  A    between atoms: _21  and  _23
REMARK   11  A    between atoms: _23  and  _24
REMARK   12  A    between atoms: _23  and  _26
REMARK   13  A    between atoms: _26  and  _27
REMARK   14  A    between atoms: _27  and  _28
REMARK   15  A    between atoms: _31  and  _33
REMARK   16  A    between atoms: _33  and  _34
REMARK   17  A    between atoms: _33  and  _36
REMARK   18  A    between atoms: _36  and  _37
REMARK   19  A    between atoms: _37  and  _38
REMARK   20  A    between atoms: _41  and  _43
REMARK   21  A    between atoms: _43  and  _44
REMARK   22  A    between atoms: _43  and  _46
REMARK   23  A    between atoms: _46  and  _47
REMARK   24  A    between atoms: _49  and  _51
REMARK   25  A    between atoms: _51  and  _52
REMARK   26  A    between atoms: _51  and  _54
REMARK   27  A    between atoms: _54  and  _55
REMARK   28  A    between atoms: _55  and  _56
REMARK   29  A    between atoms: _56  and  _57
REMARK   30  A    between atoms: _57  and  _58
REMARK   31  A    between atoms: _62  and  _64
REMARK   32  A    between atoms: _64  and  _65
REMARK   33  A    between atoms: _64  and  _67
REMARK   34  A    between atoms: _67  and  _68
REMARK   35  A    between atoms: _71  and  _73
REMARK   36  A    between atoms: _73  and  _74
REMARK   37  A    between atoms: _76  and  _78
REMARK   38  A    between atoms: _78  and  _79
REMARK   39  A    between atoms: _78  and  _81
REMARK   40  A    between atoms: _81  and  _82
REMARK   41  A    between atoms: _88  and  _90
REMARK   42  A    between atoms: _90  and  _91
REMARK   43  A    between atoms: _93  and  _95
REMARK   44  A    between atoms: _95  and  _96
REMARK   45  A    between atoms: _95  and  _98
REMARK   46  A    between atoms: _101  and  _103
REMARK   47  A    between atoms: _103  and  _104
REMARK   48  A    between atoms: _107  and  _109
REMARK   49  A    between atoms: _109  and  _110
REMARK   50  A    between atoms: _112  and  _114
REMARK   51  A    between atoms: _114  and  _115
REMARK   52  A    between atoms: _114  and  _117
REMARK   53  A    between atoms: _117  and  _118
REMARK   54  A    between atoms: _120  and  _122
REMARK   55  A    between atoms: _122  and  _123
REMARK   56  A    between atoms: _122  and  _125
REMARK   57  A    between atoms: _125  and  _126
REMARK   58  A    between atoms: _129  and  _131
REMARK   59  A    between atoms: _131  and  _132
REMARK   60  A    between atoms: _131  and  _134
REMARK   61  A    between atoms: _134  and  _135
REMARK   62  A    between atoms: _140  and  _142
REMARK   63  A    between atoms: _142  and  _143
REMARK   64  A    between atoms: _146  and  _148
REMARK   65  A    between atoms: _148  and  _149
REMARK   66  A    between atoms: _148  and  _151
REMARK   67  A    between atoms: _151  and  _152
REMARK   68  A    between atoms: _154  and  _156
REMARK   69  A    between atoms: _156  and  _157
REMARK   70  A    between atoms: _159  and  _161
REMARK   71  A    between atoms: _161  and  _162
REMARK   72  A    between atoms: _161  and  _164
REMARK   73  A    between atoms: _164  and  _165
REMARK   74  A    between atoms: _168  and  _170
REMARK   75  A    between atoms: _170  and  _171
REMARK   76  A    between atoms: _170  and  _173
REMARK   77  A    between atoms: _173  and  _174
REMARK   78  A    between atoms: _174  and  _175
REMARK   79  A    between atoms: _180  and  _182
REMARK   80  A    between atoms: _182  and  _183
REMARK   81  A    between atoms: _182  and  _185
REMARK   82  A    between atoms: _185  and  _186
REMARK   83  A    between atoms: _192  and  _194
REMARK   84  A    between atoms: _194  and  _195
REMARK   85  A    between atoms: _194  and  _197
REMARK   86  A    between atoms: _200  and  _202
REMARK   87  A    between atoms: _202  and  _203
REMARK   88  A    between atoms: _202  and  _205
REMARK   89  A    between atoms: _205  and  _206
REMARK   90  A    between atoms: _211  and  _213
REMARK   91  A    between atoms: _213  and  _214
REMARK   92  A    between atoms: _213  and  _216
REMARK   93  A    between atoms: _216  and  _217
REMARK   94  A    between atoms: _219  and  _221
REMARK   95  A    between atoms: _221  and  _222
REMARK   96  A    between atoms: _221  and  _224
REMARK   97  A    between atoms: _224  and  _225
REMARK   98  A    between atoms: _225  and  _226
REMARK   99  A    between atoms: _226  and  _227
REMARK  100  A    between atoms: _227  and  _228
REMARK  101  A    between atoms: _232  and  _234
REMARK  102  A    between atoms: _234  and  _235
REMARK  103  A    between atoms: _234  and  _237
REMARK  104  A    between atoms: _237  and  _238
REMARK  105  A    between atoms: _241  and  _243
REMARK  106  A    between atoms: _243  and  _244
REMARK  107  A    between atoms: _247  and  _249
REMARK  108  A    between atoms: _249  and  _250
REMARK  109  A    between atoms: _249  and  _252
REMARK  110  A    between atoms: _255  and  _257
REMARK  111  A    between atoms: _257  and  _258
REMARK  112  A    between atoms: _257  and  _260
REMARK  113  A    between atoms: _260  and  _261
REMARK  114  A    between atoms: _261  and  _262
REMARK  115  A    between atoms: _265  and  _267
REMARK  116  A    between atoms: _267  and  _268
REMARK  117  A    between atoms: _267  and  _270
REMARK  118  A    between atoms: _270  and  _271
REMARK  119  A    between atoms: _271  and  _272
REMARK  120  A    between atoms: _274  and  _276
REMARK  121  A    between atoms: _276  and  _277
REMARK  122  A    between atoms: _276  and  _279
REMARK  123  A    between atoms: _279  and  _280
REMARK  124  A    between atoms: _280  and  _281
REMARK  125  A    between atoms: _284  and  _286
REMARK  126  A    between atoms: _286  and  _287
REMARK  127  A    between atoms: _289  and  _291
REMARK  128  A    between atoms: _291  and  _292
REMARK  129  A    between atoms: _291  and  _294
REMARK  130  A    between atoms: _294  and  _295
REMARK  131  A    between atoms: _295  and  _296
REMARK  132  A    between atoms: _296  and  _297
REMARK  133  A    between atoms: _306  and  _308
REMARK  134  A    between atoms: _308  and  _309
REMARK  135  A    between atoms: _308  and  _311
REMARK  136  A    between atoms: _311  and  _312
REMARK  137  A    between atoms: _314  and  _316
REMARK  138  A    between atoms: _316  and  _317
REMARK  139  A    between atoms: _316  and  _319
REMARK  140  A    between atoms: _319  and  _320
REMARK  141  A    between atoms: _323  and  _325
REMARK  142  A    between atoms: _325  and  _326
REMARK  143  A    between atoms: _325  and  _328
REMARK  144  A    between atoms: _328  and  _329
REMARK  145  A    between atoms: _331  and  _333
REMARK  146  A    between atoms: _333  and  _334
REMARK  147  A    between atoms: _333  and  _336
REMARK  148  A    between atoms: _336  and  _337
REMARK  149  A    between atoms: _340  and  _342
REMARK  150  A    between atoms: _342  and  _343
REMARK  151  A    between atoms: _342  and  _345
REMARK  152  A    between atoms: _345  and  _346
REMARK  153  A    between atoms: _351  and  _353
REMARK  154  A    between atoms: _353  and  _354
REMARK  155  A    between atoms: _357  and  _359
REMARK  156  A    between atoms: _359  and  _360
REMARK  157  A    between atoms: _359  and  _362
REMARK  158  A    between atoms: _362  and  _363
REMARK  159  A    between atoms: _366  and  _368
REMARK  160  A    between atoms: _368  and  _369
REMARK  161  A    between atoms: _372  and  _374
REMARK  162  A    between atoms: _374  and  _375
REMARK  163  A    between atoms: _377  and  _379
REMARK  164  A    between atoms: _379  and  _380
REMARK  165  A    between atoms: _379  and  _382
REMARK  166  A    between atoms: _382  and  _383
REMARK  167  A    between atoms: _385  and  _387
REMARK  168  A    between atoms: _387  and  _388
REMARK  169  A    between atoms: _387  and  _390
REMARK  170  A    between atoms: _390  and  _391
REMARK  171  A    between atoms: _397  and  _399
REMARK  172  A    between atoms: _399  and  _400
REMARK  173  A    between atoms: _399  and  _402
REMARK  174  A    between atoms: _402  and  _403
REMARK  175  A    between atoms: _406  and  _408
REMARK  176  A    between atoms: _408  and  _409
REMARK  177  A    between atoms: _408  and  _411
REMARK  178  A    between atoms: _411  and  _412
REMARK  179  A    between atoms: _415  and  _417
REMARK  180  A    between atoms: _417  and  _418
REMARK  181  A    between atoms: _417  and  _420
REMARK  182  A    between atoms: _420  and  _421
REMARK  183  A    between atoms: _423  and  _425
REMARK  184  A    between atoms: _425  and  _426
REMARK  185  A    between atoms: _425  and  _428
REMARK  186  A    between atoms: _428  and  _429
REMARK  187  A    between atoms: _432  and  _434
REMARK  188  A    between atoms: _434  and  _435
REMARK  189  A    between atoms: _434  and  _437
REMARK  190  A    between atoms: _437  and  _438
REMARK  191  A    between atoms: _441  and  _443
REMARK  192  A    between atoms: _443  and  _444
REMARK  193  A    between atoms: _443  and  _446
REMARK  194  A    between atoms: _446  and  _447
REMARK  195  A    between atoms: _449  and  _451
REMARK  196  A    between atoms: _451  and  _452
REMARK  197  A    between atoms: _455  and  _457
REMARK  198  A    between atoms: _457  and  _458
REMARK  199  A    between atoms: _457  and  _460
REMARK  200  A    between atoms: _460  and  _461
REMARK  201  A    between atoms: _467  and  _469
REMARK  202  A    between atoms: _469  and  _470
REMARK  203  A    between atoms: _469  and  _472
REMARK  204  A    between atoms: _472  and  _473
REMARK  205  A    between atoms: _476  and  _478
REMARK  206  A    between atoms: _478  and  _479
REMARK  207  A    between atoms: _478  and  _481
REMARK  208  A    between atoms: _481  and  _482
REMARK  209  A    between atoms: _487  and  _489
REMARK  210  A    between atoms: _489  and  _490
REMARK  211  A    between atoms: _489  and  _492
REMARK  212  A    between atoms: _492  and  _493
REMARK  213  A    between atoms: _499  and  _501
REMARK  214  A    between atoms: _501  and  _502
REMARK  215  A    between atoms: _501  and  _504
REMARK  216  A    between atoms: _504  and  _505
REMARK  217  A    between atoms: _509  and  _510
REMARK  218  A    between atoms: _515  and  _517
REMARK  219  A    between atoms: _517  and  _518
REMARK  220  A    between atoms: _517  and  _520
REMARK  221  A    between atoms: _520  and  _521
REMARK  222  A    between atoms: _521  and  _522
REMARK  223  A    between atoms: _525  and  _527
REMARK  224  A    between atoms: _527  and  _528
REMARK  225  A    between atoms: _527  and  _530
REMARK  226  A    between atoms: _530  and  _531
REMARK                            x       y       z     vdW  Elec       q    Type
REMARK                         _______ _______ _______ _____ _____    ______ ____
ROOT
ATOM      1  O   HOH     1      40.927  81.515  20.179  0.00  0.00    +0.000 OA
ENDROOT
TORSDOF 0
REMARK  Name = ../refined-set-2016/4wkp/4wkp_pocket.pdb
REMARK  226 active torsions:
REMARK  status: ('A' for Active; 'I' for Inactive)
REMARK    1  A    between atoms: _1  and  _3
REMARK    2  A    between atoms: _3  and  _4
REMARK    3  A    between atoms: _6  and  _8
REMARK    4  A    between atoms: _8  and  _9
REMARK    5  A    between atoms: _12  and  _14
REMARK    6  A    between atoms: _14  and  _15
REMARK    7  A    between atoms: _14  and  _17
REMARK    8  A    between atoms: _17  and  _18
REMARK    9  A    between atoms: _18  and  _19
REMARK   10  A    between atoms: _21  and  _23
REMARK   11  A    between atoms: _23  and  _24
REMARK   12  A    between atoms: _23  and  _26
REMARK   13  A    between atoms: _26  and  _27
REMARK   14  A    between atoms: _27  and  _28
REMARK   15  A    between atoms: _31  and  _33
REMARK   16  A    between atoms: _33  and  _34
REMARK   17  A    between atoms: _33  and  _36
REMARK   18  A    between atoms: _36  and  _37
REMARK   19  A    between atoms: _37  and  _38
REMARK   20  A    between atoms: _41  and  _43
REMARK   21  A    between atoms: _43  and  _44
REMARK   22  A    between atoms: _43  and  _46
REMARK   23  A    between atoms: _46  and  _47
REMARK   24  A    between atoms: _49  and  _51
REMARK   25  A    between atoms: _51  and  _52
REMARK   26  A    between atoms: _51  and  _54
REMARK   27  A    between atoms: _54  and  _55
REMARK   28  A    between atoms: _55  and  _56
REMARK   29  A    between atoms: _56  and  _57
REMARK   30  A    between atoms: _57  and  _58
REMARK   31  A    between atoms: _62  and  _64
REMARK   32  A    between atoms: _64  and  _65
REMARK   33  A    between atoms: _64  and  _67
REMARK   34  A    between atoms: _67  and  _68
REMARK   35  A    between atoms: _71  and  _73
REMARK   36  A    between atoms: _73  and  _74
REMARK   37  A    between atoms: _76  and  _78
REMARK   38  A    between atoms: _78  and  _79
REMARK   39  A    between atoms: _78  and  _81
REMARK   40  A    between atoms: _81  and  _82
REMARK   41  A    between atoms: _88  and  _90
REMARK   42  A    between atoms: _90  and  _91
REMARK   43  A    between atoms: _93  and  _95
REMARK   44  A    between atoms: _95  and  _96
REMARK   45  A    between atoms: _95  and  _98
REMARK   46  A    between atoms: _101  and  _103
REMARK   47  A    between atoms: _103  and  _104
REMARK   48  A    between atoms: _107  and  _109
REMARK   49  A    between atoms: _109  and  _110
REMARK   50  A    between atoms: _112  and  _114
REMARK   51  A    between atoms: _114  and  _115
REMARK   52  A    between atoms: _114  and  _117
REMARK   53  A    between atoms: _117  and  _118
REMARK   54  A    between atoms: _120  and  _122
REMARK   55  A    between atoms: _122  and  _123
REMARK   56  A    between atoms: _122  and  _125
REMARK   57  A    between atoms: _125  and  _126
REMARK   58  A    between atoms: _129  and  _131
REMARK   59  A    between atoms: _131  and  _132
REMARK   60  A    between atoms: _131  and  _134
REMARK   61  A    between atoms: _134  and  _135
REMARK   62  A    between atoms: _140  and  _142
REMARK   63  A    between atoms: _142  and  _143
REMARK   64  A    between atoms: _146  and  _148
REMARK   65  A    between atoms: _148  and  _149
REMARK   66  A    between atoms: _148  and  _151
REMARK   67  A    between atoms: _151  and  _152
REMARK   68  A    between atoms: _154  and  _156
REMARK   69  A    between atoms: _156  and  _157
REMARK   70  A    between atoms: _159  and  _161
REMARK   71  A    between atoms: _161  and  _162
REMARK   72  A    between atoms: _161  and  _164
REMARK   73  A    between atoms: _164  and  _165
REMARK   74  A    between atoms: _168  and  _170
REMARK   75  A    between atoms: _170  and  _171
REMARK   76  A    between atoms: _170  and  _173
REMARK   77  A    between atoms: _173  and  _174
REMARK   78  A    between atoms: _174  and  _175
REMARK   79  A    between atoms: _180  and  _182
REMARK   80  A    between atoms: _182  and  _183
REMARK   81  A    between atoms: _182  and  _185
REMARK   82  A    between atoms: _185  and  _186
REMARK   83  A    between atoms: _192  and  _194
REMARK   84  A    between atoms: _194  and  _195
REMARK   85  A    between atoms: _194  and  _197
REMARK   86  A    between atoms: _200  and  _202
REMARK   87  A    between atoms: _202  and  _203
REMARK   88  A    between atoms: _202  and  _205
REMARK   89  A    between atoms: _205  and  _206
REMARK   90  A    between atoms: _211  and  _213
REMARK   91  A    between atoms: _213  and  _214
REMARK   92  A    between atoms: _213  and  _216
REMARK   93  A    between atoms: _216  and  _217
REMARK   94  A    between atoms: _219  and  _221
REMARK   95  A    between atoms: _221  and  _222
REMARK   96  A    between atoms: _221  and  _224
REMARK   97  A    between atoms: _224  and  _225
REMARK   98  A    between atoms: _225  and  _226
REMARK   99  A    between atoms: _226  and  _227
REMARK  100  A    between atoms: _227  and  _228
REMARK  101  A    between atoms: _232  and  _234
REMARK  102  A    between atoms: _234  and  _235
REMARK  103  A    between atoms: _234  and  _237
REMARK  104  A    between atoms: _237  and  _238
REMARK  105  A    between atoms: _241  and  _243
REMARK  106  A    between atoms: _243  and  _244
REMARK  107  A    between atoms: _247  and  _249
REMARK  108  A    between atoms: _249  and  _250
REMARK  109  A    between atoms: _249  and  _252
REMARK  110  A    between atoms: _255  and  _257
REMARK  111  A    between atoms: _257  and  _258
REMARK  112  A    between atoms: _257  and  _260
REMARK  113  A    between atoms: _260  and  _261
REMARK  114  A    between atoms: _261  and  _262
REMARK  115  A    between atoms: _265  and  _267
REMARK  116  A    between atoms: _267  and  _268
REMARK  117  A    between atoms: _267  and  _270
REMARK  118  A    between atoms: _270  and  _271
REMARK  119  A    between atoms: _271  and  _272
REMARK  120  A    between atoms: _274  and  _276
REMARK  121  A    between atoms: _276  and  _277
REMARK  122  A    between atoms: _276  and  _279
REMARK  123  A    between atoms: _279  and  _280
REMARK  124  A    between atoms: _280  and  _281
REMARK  125  A    between atoms: _284  and  _286
REMARK  126  A    between atoms: _286  and  _287
REMARK  127  A    between atoms: _289  and  _291
REMARK  128  A    between atoms: _291  and  _292
REMARK  129  A    between atoms: _291  and  _294
REMARK  130  A    between atoms: _294  and  _295
REMARK  131  A    between atoms: _295  and  _296
REMARK  132  A    between atoms: _296  and  _297
REMARK  133  A    between atoms: _306  and  _308
REMARK  134  A    between atoms: _308  and  _309
REMARK  135  A    between atoms: _308  and  _311
REMARK  136  A    between atoms: _311  and  _312
REMARK  137  A    between atoms: _314  and  _316
REMARK  138  A    between atoms: _316  and  _317
REMARK  139  A    between atoms: _316  and  _319
REMARK  140  A    between atoms: _319  and  _320
REMARK  141  A    between atoms: _323  and  _325
REMARK  142  A    between atoms: _325  and  _326
REMARK  143  A    between atoms: _325  and  _328
REMARK  144  A    between atoms: _328  and  _329
REMARK  145  A    between atoms: _331  and  _333
REMARK  146  A    between atoms: _333  and  _334
REMARK  147  A    between atoms: _333  and  _336
REMARK  148  A    between atoms: _336  and  _337
REMARK  149  A    between atoms: _340  and  _342
REMARK  150  A    between atoms: _342  and  _343
REMARK  151  A    between atoms: _342  and  _345
REMARK  152  A    between atoms: _345  and  _346
REMARK  153  A    between atoms: _351  and  _353
REMARK  154  A    between atoms: _353  and  _354
REMARK  155  A    between atoms: _357  and  _359
REMARK  156  A    between atoms: _359  and  _360
REMARK  157  A    between atoms: _359  and  _362
REMARK  158  A    between atoms: _362  and  _363
REMARK  159  A    between atoms: _366  and  _368
REMARK  160  A    between atoms: _368  and  _369
REMARK  161  A    between atoms: _372  and  _374
REMARK  162  A    between atoms: _374  and  _375
REMARK  163  A    between atoms: _377  and  _379
REMARK  164  A    between atoms: _379  and  _380
REMARK  165  A    between atoms: _379  and  _382
REMARK  166  A    between atoms: _382  and  _383
REMARK  167  A    between atoms: _385  and  _387
REMARK  168  A    between atoms: _387  and  _388
REMARK  169  A    between atoms: _387  and  _390
REMARK  170  A    between atoms: _390  and  _391
REMARK  171  A    between atoms: _397  and  _399
REMARK  172  A    between atoms: _399  and  _400
REMARK  173  A    between atoms: _399  and  _402
REMARK  174  A    between atoms: _402  and  _403
REMARK  175  A    between atoms: _406  and  _408
REMARK  176  A    between atoms: _408  and  _409
REMARK  177  A    between atoms: _408  and  _411
REMARK  178  A    between atoms: _411  and  _412
REMARK  179  A    between atoms: _415  and  _417
REMARK  180  A    between atoms: _417  and  _418
REMARK  181  A    between atoms: _417  and  _420
REMARK  182  A    between atoms: _420  and  _421
REMARK  183  A    between atoms: _423  and  _425
REMARK  184  A    between atoms: _425  and  _426
REMARK  185  A    between atoms: _425  and  _428
REMARK  186  A    between atoms: _428  and  _429
REMARK  187  A    between atoms: _432  and  _434
REMARK  188  A    between atoms: _434  and  _435
REMARK  189  A    between atoms: _434  and  _437
REMARK  190  A    between atoms: _437  and  _438
REMARK  191  A    between atoms: _441  and  _443
REMARK  192  A    between atoms: _443  and  _444
REMARK  193  A    between atoms: _443  and  _446
REMARK  194  A    between atoms: _446  and  _447
REMARK  195  A    between atoms: _449  and  _451
REMARK  196  A    between atoms: _451  and  _452
REMARK  197  A    between atoms: _455  and  _457
REMARK  198  A    between atoms: _457  and  _458
REMARK  199  A    between atoms: _457  and  _460
REMARK  200  A    between atoms: _460  and  _461
REMARK  201  A    between atoms: _467  and  _469
REMARK  202  A    between atoms: _469  and  _470
REMARK  203  A    between atoms: _469  and  _472
REMARK  204  A    between atoms: _472  and  _473
REMARK  205  A    between atoms: _476  and  _478
REMARK  206  A    between atoms: _478  and  _479
REMARK  207  A    between atoms: _478  and  _481
REMARK  208  A    between atoms: _481  and  _482
REMARK  209  A    between atoms: _487  and  _489
REMARK  210  A    between atoms: _489  and  _490
REMARK  211  A    between atoms: _489  and  _492
REMARK  212  A    between atoms: _492  and  _493
REMARK  213  A    between atoms: _499  and  _501
REMARK  214  A    between atoms: _501  and  _502
REMARK  215  A    between atoms: _501  and  _504
REMARK  216  A    between atoms: _504  and  _505
REMARK  217  A    between atoms: _509  and  _510
REMARK  218  A    between atoms: _515  and  _517
REMARK  219  A    between atoms: _517  and  _518
REMARK  220  A    between atoms: _517  and  _520
REMARK  221  A    between atoms: _520  and  _521
REMARK  222  A    between atoms: _521  and  _522
REMARK  223  A    between atoms: _525  and  _527
REMARK  224  A    between atoms: _527  and  _528
REMARK  225  A    between atoms: _527  and  _530
REMARK  226  A    between atoms: _530  and  _531
REMARK                            x       y       z     vdW  Elec       q    Type
REMARK                         _______ _______ _______ _____ _____    ______ ____
ROOT
ATOM      1  O   HOH     1      32.653  70.953  17.652  0.00  0.00    +0.000 OA
ENDROOT
TORSDOF 0
